
---------- Begin Simulation Statistics ----------
final_tick                                 1086342000                       # Number of ticks from beginning of simulation (restored from checkpoints and never reset)
host_inst_rate                                 283689                       # Simulator instruction rate (inst/s)
host_mem_usage                                 716760                       # Number of bytes of host memory used
host_op_rate                                   283771                       # Simulator op (including micro ops) rate (op/s)
host_seconds                                    13.35                       # Real time elapsed on the host
host_tick_rate                               81400741                       # Simulator tick rate (ticks/s)
sim_freq                                 1000000000000                       # Frequency of simulated ticks
sim_insts                                     3785959                       # Number of instructions simulated
sim_ops                                       3787084                       # Number of ops (including micro ops) simulated
sim_seconds                                  0.001086                       # Number of seconds simulated
sim_ticks                                  1086342000                       # Number of ticks simulated
system.cpu.branchPred.BTBCorrect                    0                       # Number of correct BTB predictions (this stat may not work properly.
system.cpu.branchPred.BTBHitPct             99.767697                       # BTB Hit Percentage
system.cpu.branchPred.BTBHits                  164488                       # Number of BTB hits
system.cpu.branchPred.BTBLookups               164871                       # Number of BTB lookups
system.cpu.branchPred.RASInCorrect                 26                       # Number of incorrect RAS predictions.
system.cpu.branchPred.condIncorrect              1288                       # Number of conditional branches incorrect
system.cpu.branchPred.condPredicted            260968                       # Number of conditional branches predicted
system.cpu.branchPred.indirectHits               1240                       # Number of indirect target hits.
system.cpu.branchPred.indirectLookups            1446                       # Number of indirect predictor lookups.
system.cpu.branchPred.indirectMisses              206                       # Number of indirect misses.
system.cpu.branchPred.lookups                  415412                       # Number of BP lookups
system.cpu.branchPred.loop_predictor.loopPredictorCorrect         2893                       # Number of times the loop predictor is the provider and the prediction is correct
system.cpu.branchPred.loop_predictor.loopPredictorWrong           60                       # Number of times the loop predictor is the provider and the prediction is wrong
system.cpu.branchPred.statistical_corrector.scPredictorCorrect            9                       # Number of time the SC predictor is the provider and the prediction is correct
system.cpu.branchPred.statistical_corrector.scPredictorWrong            5                       # Number of time the SC predictor is the provider and the prediction is wrong
system.cpu.branchPred.tage.bimodalAltMatchProviderCorrect           63                       # Number of times TAGE Alt Match is the bimodal and it is the provider and the prediction is correct
system.cpu.branchPred.tage.bimodalAltMatchProviderWrong           26                       # Number of times TAGE Alt Match is the bimodal and it is the provider and the prediction is wrong
system.cpu.branchPred.tage.tageAltMatchProvider::0        49783                       # TAGE provider for alt match
system.cpu.branchPred.tage.tageAltMatchProvider::1            0                       # TAGE provider for alt match
system.cpu.branchPred.tage.tageAltMatchProvider::2         1744                       # TAGE provider for alt match
system.cpu.branchPred.tage.tageAltMatchProvider::3            0                       # TAGE provider for alt match
system.cpu.branchPred.tage.tageAltMatchProvider::4           57                       # TAGE provider for alt match
system.cpu.branchPred.tage.tageAltMatchProvider::5            0                       # TAGE provider for alt match
system.cpu.branchPred.tage.tageAltMatchProvider::6          476                       # TAGE provider for alt match
system.cpu.branchPred.tage.tageAltMatchProvider::7        14083                       # TAGE provider for alt match
system.cpu.branchPred.tage.tageAltMatchProvider::8         2711                       # TAGE provider for alt match
system.cpu.branchPred.tage.tageAltMatchProvider::9          186                       # TAGE provider for alt match
system.cpu.branchPred.tage.tageAltMatchProvider::10         8567                       # TAGE provider for alt match
system.cpu.branchPred.tage.tageAltMatchProvider::11         7580                       # TAGE provider for alt match
system.cpu.branchPred.tage.tageAltMatchProvider::12        10382                       # TAGE provider for alt match
system.cpu.branchPred.tage.tageAltMatchProvider::13        24612                       # TAGE provider for alt match
system.cpu.branchPred.tage.tageAltMatchProvider::14         3986                       # TAGE provider for alt match
system.cpu.branchPred.tage.tageAltMatchProvider::15        13174                       # TAGE provider for alt match
system.cpu.branchPred.tage.tageAltMatchProvider::16        13271                       # TAGE provider for alt match
system.cpu.branchPred.tage.tageAltMatchProvider::17         2651                       # TAGE provider for alt match
system.cpu.branchPred.tage.tageAltMatchProvider::18         4047                       # TAGE provider for alt match
system.cpu.branchPred.tage.tageAltMatchProvider::19         8675                       # TAGE provider for alt match
system.cpu.branchPred.tage.tageAltMatchProvider::20         8492                       # TAGE provider for alt match
system.cpu.branchPred.tage.tageAltMatchProvider::21            0                       # TAGE provider for alt match
system.cpu.branchPred.tage.tageAltMatchProvider::22        10819                       # TAGE provider for alt match
system.cpu.branchPred.tage.tageAltMatchProvider::23            0                       # TAGE provider for alt match
system.cpu.branchPred.tage.tageAltMatchProvider::24         2745                       # TAGE provider for alt match
system.cpu.branchPred.tage.tageAltMatchProvider::25            0                       # TAGE provider for alt match
system.cpu.branchPred.tage.tageAltMatchProvider::26           77                       # TAGE provider for alt match
system.cpu.branchPred.tage.tageAltMatchProvider::27            0                       # TAGE provider for alt match
system.cpu.branchPred.tage.tageAltMatchProvider::28          722                       # TAGE provider for alt match
system.cpu.branchPred.tage.tageAltMatchProvider::29            0                       # TAGE provider for alt match
system.cpu.branchPred.tage.tageAltMatchProvider::30            0                       # TAGE provider for alt match
system.cpu.branchPred.tage.tageAltMatchProviderCorrect          257                       # Number of times TAGE Alt Match is the provider and the prediction is correct
system.cpu.branchPred.tage.tageAltMatchProviderWouldHaveHit           81                       # Number of times TAGE Longest Match is the provider, the prediction is wrong and Alt Match prediction was correct
system.cpu.branchPred.tage.tageAltMatchProviderWrong           82                       # Number of times TAGE Alt Match is the provider and the prediction is wrong
system.cpu.branchPred.tage.tageBimodalProviderCorrect        62811                       # Number of times there are no hits on the TAGE tables and the bimodal prediction is correct
system.cpu.branchPred.tage.tageBimodalProviderWrong          269                       # Number of times there are no hits on the TAGE tables and the bimodal prediction is wrong
system.cpu.branchPred.tage.tageLongestMatchProvider::0            0                       # TAGE provider for longest match
system.cpu.branchPred.tage.tageLongestMatchProvider::1            0                       # TAGE provider for longest match
system.cpu.branchPred.tage.tageLongestMatchProvider::2        49558                       # TAGE provider for longest match
system.cpu.branchPred.tage.tageLongestMatchProvider::3            0                       # TAGE provider for longest match
system.cpu.branchPred.tage.tageLongestMatchProvider::4          140                       # TAGE provider for longest match
system.cpu.branchPred.tage.tageLongestMatchProvider::5            0                       # TAGE provider for longest match
system.cpu.branchPred.tage.tageLongestMatchProvider::6         1572                       # TAGE provider for longest match
system.cpu.branchPred.tage.tageLongestMatchProvider::7          245                       # TAGE provider for longest match
system.cpu.branchPred.tage.tageLongestMatchProvider::8          150                       # TAGE provider for longest match
system.cpu.branchPred.tage.tageLongestMatchProvider::9          412                       # TAGE provider for longest match
system.cpu.branchPred.tage.tageLongestMatchProvider::10        16676                       # TAGE provider for longest match
system.cpu.branchPred.tage.tageLongestMatchProvider::11          409                       # TAGE provider for longest match
system.cpu.branchPred.tage.tageLongestMatchProvider::12         5640                       # TAGE provider for longest match
system.cpu.branchPred.tage.tageLongestMatchProvider::13         9517                       # TAGE provider for longest match
system.cpu.branchPred.tage.tageLongestMatchProvider::14         5107                       # TAGE provider for longest match
system.cpu.branchPred.tage.tageLongestMatchProvider::15         9182                       # TAGE provider for longest match
system.cpu.branchPred.tage.tageLongestMatchProvider::16        25527                       # TAGE provider for longest match
system.cpu.branchPred.tage.tageLongestMatchProvider::17         9211                       # TAGE provider for longest match
system.cpu.branchPred.tage.tageLongestMatchProvider::18         4185                       # TAGE provider for longest match
system.cpu.branchPred.tage.tageLongestMatchProvider::19         5810                       # TAGE provider for longest match
system.cpu.branchPred.tage.tageLongestMatchProvider::20        13955                       # TAGE provider for longest match
system.cpu.branchPred.tage.tageLongestMatchProvider::21            0                       # TAGE provider for longest match
system.cpu.branchPred.tage.tageLongestMatchProvider::22         5574                       # TAGE provider for longest match
system.cpu.branchPred.tage.tageLongestMatchProvider::23            0                       # TAGE provider for longest match
system.cpu.branchPred.tage.tageLongestMatchProvider::24        18461                       # TAGE provider for longest match
system.cpu.branchPred.tage.tageLongestMatchProvider::25            0                       # TAGE provider for longest match
system.cpu.branchPred.tage.tageLongestMatchProvider::26         5657                       # TAGE provider for longest match
system.cpu.branchPred.tage.tageLongestMatchProvider::27            0                       # TAGE provider for longest match
system.cpu.branchPred.tage.tageLongestMatchProvider::28         1049                       # TAGE provider for longest match
system.cpu.branchPred.tage.tageLongestMatchProvider::29            0                       # TAGE provider for longest match
system.cpu.branchPred.tage.tageLongestMatchProvider::30          803                       # TAGE provider for longest match
system.cpu.branchPred.tage.tageLongestMatchProviderCorrect       188065                       # Number of times TAGE Longest Match is the provider and the prediction is correct
system.cpu.branchPred.tage.tageLongestMatchProviderWouldHaveHit           51                       # Number of times TAGE Alt Match is the provider, the prediction is wrong and Longest Match prediction was correct
system.cpu.branchPred.tage.tageLongestMatchProviderWrong          436                       # Number of times TAGE Longest Match is the provider and the prediction is wrong
system.cpu.branchPred.usedRAS                   50975                       # Number of times the RAS was used to get a target.
system.cpu.branchPredindirectMispredicted          202                       # Number of mispredicted indirect branches.
system.cpu.cc_regfile_reads                  13907566                       # number of cc regfile reads
system.cpu.cc_regfile_writes                   876244                       # number of cc regfile writes
system.cpu.commit.amos                              0                       # Number of atomic instructions committed
system.cpu.commit.branchMispredicts              1121                       # The number of times a branch was mispredicted
system.cpu.commit.branches                     406311                       # Number of branches committed
system.cpu.commit.bw_lim_events                241280                       # number cycles where commit BW limit reached
system.cpu.commit.commitNonSpecStalls              37                       # The number of times commit has been forced to stall to communicate backwards
system.cpu.commit.commitSquashedInsts           44670                       # The number of squashed insts skipped by commit
system.cpu.commit.committedInsts              3785959                       # Number of instructions committed
system.cpu.commit.committedOps                3787084                       # Number of ops (including micro ops) committed
system.cpu.commit.committed_per_cycle::samples      2144367                       # Number of insts commited each cycle
system.cpu.commit.committed_per_cycle::mean     1.766061                       # Number of insts commited each cycle
system.cpu.commit.committed_per_cycle::stdev     2.337739                       # Number of insts commited each cycle
system.cpu.commit.committed_per_cycle::underflows            0      0.00%      0.00% # Number of insts commited each cycle
system.cpu.commit.committed_per_cycle::0       459225     21.42%     21.42% # Number of insts commited each cycle
system.cpu.commit.committed_per_cycle::1      1139620     53.14%     74.56% # Number of insts commited each cycle
system.cpu.commit.committed_per_cycle::2       216247     10.08%     84.64% # Number of insts commited each cycle
system.cpu.commit.committed_per_cycle::3        77776      3.63%     88.27% # Number of insts commited each cycle
system.cpu.commit.committed_per_cycle::4          676      0.03%     88.30% # Number of insts commited each cycle
system.cpu.commit.committed_per_cycle::5         8818      0.41%     88.71% # Number of insts commited each cycle
system.cpu.commit.committed_per_cycle::6          467      0.02%     88.74% # Number of insts commited each cycle
system.cpu.commit.committed_per_cycle::7          258      0.01%     88.75% # Number of insts commited each cycle
system.cpu.commit.committed_per_cycle::8       241280     11.25%    100.00% # Number of insts commited each cycle
system.cpu.commit.committed_per_cycle::overflows            0      0.00%    100.00% # Number of insts commited each cycle
system.cpu.commit.committed_per_cycle::min_value            0                       # Number of insts commited each cycle
system.cpu.commit.committed_per_cycle::max_value            8                       # Number of insts commited each cycle
system.cpu.commit.committed_per_cycle::total      2144367                       # Number of insts commited each cycle
system.cpu.commit.fp_insts                          0                       # Number of committed floating point instructions.
system.cpu.commit.function_calls                50123                       # Number of function calls committed.
system.cpu.commit.int_insts                   3482031                       # Number of committed integer instructions.
system.cpu.commit.loads                        829893                       # Number of loads committed
system.cpu.commit.membars                          14                       # Number of memory barriers committed
system.cpu.commit.op_class_0::No_OpClass            0      0.00%      0.00% # Class of committed instruction
system.cpu.commit.op_class_0::IntAlu          2340035     61.79%     61.79% # Class of committed instruction
system.cpu.commit.op_class_0::IntMult          100003      2.64%     64.43% # Class of committed instruction
system.cpu.commit.op_class_0::IntDiv                0      0.00%     64.43% # Class of committed instruction
system.cpu.commit.op_class_0::FloatAdd              0      0.00%     64.43% # Class of committed instruction
system.cpu.commit.op_class_0::FloatCmp              0      0.00%     64.43% # Class of committed instruction
system.cpu.commit.op_class_0::FloatCvt              0      0.00%     64.43% # Class of committed instruction
system.cpu.commit.op_class_0::FloatMult             0      0.00%     64.43% # Class of committed instruction
system.cpu.commit.op_class_0::FloatMultAcc            0      0.00%     64.43% # Class of committed instruction
system.cpu.commit.op_class_0::FloatDiv              0      0.00%     64.43% # Class of committed instruction
system.cpu.commit.op_class_0::FloatMisc             0      0.00%     64.43% # Class of committed instruction
system.cpu.commit.op_class_0::FloatSqrt             0      0.00%     64.43% # Class of committed instruction
system.cpu.commit.op_class_0::SimdAdd               0      0.00%     64.43% # Class of committed instruction
system.cpu.commit.op_class_0::SimdAddAcc            0      0.00%     64.43% # Class of committed instruction
system.cpu.commit.op_class_0::SimdAlu               0      0.00%     64.43% # Class of committed instruction
system.cpu.commit.op_class_0::SimdCmp               0      0.00%     64.43% # Class of committed instruction
system.cpu.commit.op_class_0::SimdCvt               0      0.00%     64.43% # Class of committed instruction
system.cpu.commit.op_class_0::SimdMisc              0      0.00%     64.43% # Class of committed instruction
system.cpu.commit.op_class_0::SimdMult              0      0.00%     64.43% # Class of committed instruction
system.cpu.commit.op_class_0::SimdMultAcc            0      0.00%     64.43% # Class of committed instruction
system.cpu.commit.op_class_0::SimdShift             0      0.00%     64.43% # Class of committed instruction
system.cpu.commit.op_class_0::SimdShiftAcc            0      0.00%     64.43% # Class of committed instruction
system.cpu.commit.op_class_0::SimdDiv               0      0.00%     64.43% # Class of committed instruction
system.cpu.commit.op_class_0::SimdSqrt              0      0.00%     64.43% # Class of committed instruction
system.cpu.commit.op_class_0::SimdFloatAdd            0      0.00%     64.43% # Class of committed instruction
system.cpu.commit.op_class_0::SimdFloatAlu            0      0.00%     64.43% # Class of committed instruction
system.cpu.commit.op_class_0::SimdFloatCmp            0      0.00%     64.43% # Class of committed instruction
system.cpu.commit.op_class_0::SimdFloatCvt            0      0.00%     64.43% # Class of committed instruction
system.cpu.commit.op_class_0::SimdFloatDiv            0      0.00%     64.43% # Class of committed instruction
system.cpu.commit.op_class_0::SimdFloatMisc            0      0.00%     64.43% # Class of committed instruction
system.cpu.commit.op_class_0::SimdFloatMult            0      0.00%     64.43% # Class of committed instruction
system.cpu.commit.op_class_0::SimdFloatMultAcc            0      0.00%     64.43% # Class of committed instruction
system.cpu.commit.op_class_0::SimdFloatSqrt            0      0.00%     64.43% # Class of committed instruction
system.cpu.commit.op_class_0::SimdReduceAdd            0      0.00%     64.43% # Class of committed instruction
system.cpu.commit.op_class_0::SimdReduceAlu            0      0.00%     64.43% # Class of committed instruction
system.cpu.commit.op_class_0::SimdReduceCmp            0      0.00%     64.43% # Class of committed instruction
system.cpu.commit.op_class_0::SimdFloatReduceAdd            0      0.00%     64.43% # Class of committed instruction
system.cpu.commit.op_class_0::SimdFloatReduceCmp            0      0.00%     64.43% # Class of committed instruction
system.cpu.commit.op_class_0::SimdAes               0      0.00%     64.43% # Class of committed instruction
system.cpu.commit.op_class_0::SimdAesMix            0      0.00%     64.43% # Class of committed instruction
system.cpu.commit.op_class_0::SimdSha1Hash            0      0.00%     64.43% # Class of committed instruction
system.cpu.commit.op_class_0::SimdSha1Hash2            0      0.00%     64.43% # Class of committed instruction
system.cpu.commit.op_class_0::SimdSha256Hash            0      0.00%     64.43% # Class of committed instruction
system.cpu.commit.op_class_0::SimdSha256Hash2            0      0.00%     64.43% # Class of committed instruction
system.cpu.commit.op_class_0::SimdShaSigma2            0      0.00%     64.43% # Class of committed instruction
system.cpu.commit.op_class_0::SimdShaSigma3            0      0.00%     64.43% # Class of committed instruction
system.cpu.commit.op_class_0::SimdPredAlu            0      0.00%     64.43% # Class of committed instruction
system.cpu.commit.op_class_0::MemRead          829893     21.91%     86.34% # Class of committed instruction
system.cpu.commit.op_class_0::MemWrite         517153     13.66%    100.00% # Class of committed instruction
system.cpu.commit.op_class_0::FloatMemRead            0      0.00%    100.00% # Class of committed instruction
system.cpu.commit.op_class_0::FloatMemWrite            0      0.00%    100.00% # Class of committed instruction
system.cpu.commit.op_class_0::IprAccess             0      0.00%    100.00% # Class of committed instruction
system.cpu.commit.op_class_0::InstPrefetch            0      0.00%    100.00% # Class of committed instruction
system.cpu.commit.op_class_0::total           3787084                       # Class of committed instruction
system.cpu.commit.refs                        1347046                       # Number of memory references committed
system.cpu.commit.swp_count                         0                       # Number of s/w prefetches committed
system.cpu.commit.vec_insts                         0                       # Number of committed Vector instructions.
system.cpu.committedInsts                     3785959                       # Number of Instructions Simulated
system.cpu.committedOps                       3787084                       # Number of Ops (including micro ops) Simulated
system.cpu.cpi                               0.573880                       # CPI: Cycles Per Instruction
system.cpu.cpi_total                         0.573880                       # CPI: Total CPI of All Threads
system.cpu.decode.BlockedCycles               1509660                       # Number of cycles decode is blocked
system.cpu.decode.BranchMispred                   174                       # Number of times decode detected a branch misprediction
system.cpu.decode.BranchResolved               163643                       # Number of times decode resolved a branch
system.cpu.decode.DecodedInsts                3842818                       # Number of instructions handled by decode
system.cpu.decode.IdleCycles                   155151                       # Number of cycles decode is idle
system.cpu.decode.RunCycles                     64899                       # Number of cycles decode is running
system.cpu.decode.SquashCycles                   1341                       # Number of cycles decode is squashing
system.cpu.decode.SquashedInsts                   650                       # Number of squashed instructions handled by decode
system.cpu.decode.UnblockCycles                419688                       # Number of cycles decode is unblocking
system.cpu.dtb.accesses                             0                       # DTB accesses
system.cpu.dtb.align_faults                         0                       # Number of TLB faults due to alignment restrictions
system.cpu.dtb.domain_faults                        0                       # Number of TLB faults due to domain restrictions
system.cpu.dtb.flush_entries                        0                       # Number of entries that have been flushed from TLB
system.cpu.dtb.flush_tlb                            0                       # Number of times complete TLB was flushed
system.cpu.dtb.flush_tlb_asid                       0                       # Number of times TLB was flushed by ASID
system.cpu.dtb.flush_tlb_mva                        0                       # Number of times TLB was flushed by MVA
system.cpu.dtb.flush_tlb_mva_asid                   0                       # Number of times TLB was flushed by MVA & ASID
system.cpu.dtb.hits                                 0                       # DTB hits
system.cpu.dtb.inst_accesses                        0                       # ITB inst accesses
system.cpu.dtb.inst_hits                            0                       # ITB inst hits
system.cpu.dtb.inst_misses                          0                       # ITB inst misses
system.cpu.dtb.misses                               0                       # DTB misses
system.cpu.dtb.perms_faults                         0                       # Number of TLB faults due to permissions restrictions
system.cpu.dtb.prefetch_faults                      0                       # Number of TLB faults due to prefetch
system.cpu.dtb.read_accesses                        0                       # DTB read accesses
system.cpu.dtb.read_hits                            0                       # DTB read hits
system.cpu.dtb.read_misses                          0                       # DTB read misses
system.cpu.dtb.stage2_mmu.stage2_tlb.accesses            0                       # DTB accesses
system.cpu.dtb.stage2_mmu.stage2_tlb.align_faults            0                       # Number of TLB faults due to alignment restrictions
system.cpu.dtb.stage2_mmu.stage2_tlb.domain_faults            0                       # Number of TLB faults due to domain restrictions
system.cpu.dtb.stage2_mmu.stage2_tlb.flush_entries            0                       # Number of entries that have been flushed from TLB
system.cpu.dtb.stage2_mmu.stage2_tlb.flush_tlb            0                       # Number of times complete TLB was flushed
system.cpu.dtb.stage2_mmu.stage2_tlb.flush_tlb_asid            0                       # Number of times TLB was flushed by ASID
system.cpu.dtb.stage2_mmu.stage2_tlb.flush_tlb_mva            0                       # Number of times TLB was flushed by MVA
system.cpu.dtb.stage2_mmu.stage2_tlb.flush_tlb_mva_asid            0                       # Number of times TLB was flushed by MVA & ASID
system.cpu.dtb.stage2_mmu.stage2_tlb.hits            0                       # DTB hits
system.cpu.dtb.stage2_mmu.stage2_tlb.inst_accesses            0                       # ITB inst accesses
system.cpu.dtb.stage2_mmu.stage2_tlb.inst_hits            0                       # ITB inst hits
system.cpu.dtb.stage2_mmu.stage2_tlb.inst_misses            0                       # ITB inst misses
system.cpu.dtb.stage2_mmu.stage2_tlb.misses            0                       # DTB misses
system.cpu.dtb.stage2_mmu.stage2_tlb.perms_faults            0                       # Number of TLB faults due to permissions restrictions
system.cpu.dtb.stage2_mmu.stage2_tlb.prefetch_faults            0                       # Number of TLB faults due to prefetch
system.cpu.dtb.stage2_mmu.stage2_tlb.read_accesses            0                       # DTB read accesses
system.cpu.dtb.stage2_mmu.stage2_tlb.read_hits            0                       # DTB read hits
system.cpu.dtb.stage2_mmu.stage2_tlb.read_misses            0                       # DTB read misses
system.cpu.dtb.stage2_mmu.stage2_tlb.walker.walkRequestOrigin_Requested::Data            0                       # Table walker requests started/completed, data/inst
system.cpu.dtb.stage2_mmu.stage2_tlb.walker.walkRequestOrigin_Requested::Inst            0                       # Table walker requests started/completed, data/inst
system.cpu.dtb.stage2_mmu.stage2_tlb.walker.walkRequestOrigin_Requested::total            0                       # Table walker requests started/completed, data/inst
system.cpu.dtb.stage2_mmu.stage2_tlb.walker.walkRequestOrigin_Completed::Data            0                       # Table walker requests started/completed, data/inst
system.cpu.dtb.stage2_mmu.stage2_tlb.walker.walkRequestOrigin_Completed::Inst            0                       # Table walker requests started/completed, data/inst
system.cpu.dtb.stage2_mmu.stage2_tlb.walker.walkRequestOrigin_Completed::total            0                       # Table walker requests started/completed, data/inst
system.cpu.dtb.stage2_mmu.stage2_tlb.walker.walkRequestOrigin::total            0                       # Table walker requests started/completed, data/inst
system.cpu.dtb.stage2_mmu.stage2_tlb.walker.walks            0                       # Table walker walks requested
system.cpu.dtb.stage2_mmu.stage2_tlb.write_accesses            0                       # DTB write accesses
system.cpu.dtb.stage2_mmu.stage2_tlb.write_hits            0                       # DTB write hits
system.cpu.dtb.stage2_mmu.stage2_tlb.write_misses            0                       # DTB write misses
system.cpu.dtb.walker.walkRequestOrigin_Requested::Data            0                       # Table walker requests started/completed, data/inst
system.cpu.dtb.walker.walkRequestOrigin_Requested::Inst            0                       # Table walker requests started/completed, data/inst
system.cpu.dtb.walker.walkRequestOrigin_Requested::total            0                       # Table walker requests started/completed, data/inst
system.cpu.dtb.walker.walkRequestOrigin_Completed::Data            0                       # Table walker requests started/completed, data/inst
system.cpu.dtb.walker.walkRequestOrigin_Completed::Inst            0                       # Table walker requests started/completed, data/inst
system.cpu.dtb.walker.walkRequestOrigin_Completed::total            0                       # Table walker requests started/completed, data/inst
system.cpu.dtb.walker.walkRequestOrigin::total            0                       # Table walker requests started/completed, data/inst
system.cpu.dtb.walker.walks                         0                       # Table walker walks requested
system.cpu.dtb.write_accesses                       0                       # DTB write accesses
system.cpu.dtb.write_hits                           0                       # DTB write hits
system.cpu.dtb.write_misses                         0                       # DTB write misses
system.cpu.fetch.Branches                      415412                       # Number of branches that fetch encountered
system.cpu.fetch.CacheLines                    463769                       # Number of cache lines fetched
system.cpu.fetch.Cycles                       1677948                       # Number of cycles fetch has run and was not squashing or blocked
system.cpu.fetch.IcacheSquashes                   675                       # Number of outstanding Icache misses that were squashed
system.cpu.fetch.IcacheWaitRetryStallCycles           93                       # Number of stall cycles due to full MSHR
system.cpu.fetch.Insts                        3867117                       # Number of instructions fetch has processed
system.cpu.fetch.MiscStallCycles                    9                       # Number of cycles fetch has spent waiting on interrupts, or bad addresses, or out of MSHRs
system.cpu.fetch.PendingTrapStallCycles            45                       # Number of stall cycles due to pending traps
system.cpu.fetch.SquashCycles                    3020                       # Number of cycles fetch has spent squashing
system.cpu.fetch.branchRate                  0.191198                       # Number of branch fetches per cycle
system.cpu.fetch.icacheStallCycles             471134                       # Number of cycles fetch is stalled on an Icache miss
system.cpu.fetch.predictedBranches             216703                       # Number of branches that fetch has predicted taken
system.cpu.fetch.rate                        1.779879                       # Number of inst fetches per cycle
system.cpu.fetch.rateDist::samples            2150739                       # Number of instructions fetched each cycle (Total)
system.cpu.fetch.rateDist::mean              1.799073                       # Number of instructions fetched each cycle (Total)
system.cpu.fetch.rateDist::stdev             2.853842                       # Number of instructions fetched each cycle (Total)
system.cpu.fetch.rateDist::underflows               0      0.00%      0.00% # Number of instructions fetched each cycle (Total)
system.cpu.fetch.rateDist::0                  1389721     64.62%     64.62% # Number of instructions fetched each cycle (Total)
system.cpu.fetch.rateDist::1                    87313      4.06%     68.68% # Number of instructions fetched each cycle (Total)
system.cpu.fetch.rateDist::2                    56833      2.64%     71.32% # Number of instructions fetched each cycle (Total)
system.cpu.fetch.rateDist::3                    96271      4.48%     75.79% # Number of instructions fetched each cycle (Total)
system.cpu.fetch.rateDist::4                   118784      5.52%     81.32% # Number of instructions fetched each cycle (Total)
system.cpu.fetch.rateDist::5                    37848      1.76%     83.08% # Number of instructions fetched each cycle (Total)
system.cpu.fetch.rateDist::6                    52310      2.43%     85.51% # Number of instructions fetched each cycle (Total)
system.cpu.fetch.rateDist::7                    91963      4.28%     89.79% # Number of instructions fetched each cycle (Total)
system.cpu.fetch.rateDist::8                   219696     10.21%    100.00% # Number of instructions fetched each cycle (Total)
system.cpu.fetch.rateDist::overflows                0      0.00%    100.00% # Number of instructions fetched each cycle (Total)
system.cpu.fetch.rateDist::min_value                0                       # Number of instructions fetched each cycle (Total)
system.cpu.fetch.rateDist::max_value                8                       # Number of instructions fetched each cycle (Total)
system.cpu.fetch.rateDist::total              2150739                       # Number of instructions fetched each cycle (Total)
system.cpu.idleCycles                           21946                       # Total number of cycles that the CPU has spent unscheduled due to idling
system.cpu.iew.branchMispredicts                 1167                       # Number of branch mispredicts detected at execute
system.cpu.iew.exec_branches                   407808                       # Number of branches executed
system.cpu.iew.exec_nop                             0                       # number of nop insts executed
system.cpu.iew.exec_rate                     1.749805                       # Inst execution rate
system.cpu.iew.exec_refs                      1354536                       # number of memory reference insts executed
system.cpu.iew.exec_stores                     519522                       # Number of stores executed
system.cpu.iew.exec_swp                             0                       # number of swp insts executed
system.cpu.iew.iewBlockCycles                    7324                       # Number of cycles IEW is blocking
system.cpu.iew.iewDispLoadInsts                840934                       # Number of dispatched load instructions
system.cpu.iew.iewDispNonSpecInsts                 31                       # Number of dispatched non-speculative instructions
system.cpu.iew.iewDispSquashedInsts               111                       # Number of squashed instructions skipped by dispatch
system.cpu.iew.iewDispStoreInsts               523642                       # Number of dispatched store instructions
system.cpu.iew.iewDispatchedInsts             3831783                       # Number of instructions dispatched to IQ
system.cpu.iew.iewExecLoadInsts                835014                       # Number of load instructions executed
system.cpu.iew.iewExecSquashedInsts              1298                       # Number of squashed instructions skipped in execute
system.cpu.iew.iewExecutedInsts               3801776                       # Number of executed instructions
system.cpu.iew.iewIQFullEvents                    274                       # Number of times the IQ has become full, causing a stall
system.cpu.iew.iewIdleCycles                        0                       # Number of cycles IEW is idle
system.cpu.iew.iewLSQFullEvents                   105                       # Number of times the LSQ has become full, causing a stall
system.cpu.iew.iewSquashCycles                   1341                       # Number of cycles IEW is squashing
system.cpu.iew.iewUnblockCycles                   394                       # Number of cycles IEW is unblocking
system.cpu.iew.lsq.thread0.blockedLoads             0                       # Number of blocked loads due to partial load-store forwarding
system.cpu.iew.lsq.thread0.cacheBlocked             5                       # Number of times an access to memory failed due to the cache being blocked
system.cpu.iew.lsq.thread0.forwLoads           528220                       # Number of loads that had data forwarded from stores
system.cpu.iew.lsq.thread0.ignoredResponses           10                       # Number of memory responses ignored because the instruction is squashed
system.cpu.iew.lsq.thread0.invAddrLoads             0                       # Number of loads ignored due to an invalid address
system.cpu.iew.lsq.thread0.invAddrSwpfs             0                       # Number of software prefetches ignored due to an invalid address
system.cpu.iew.lsq.thread0.memOrderViolation          247                       # Number of memory ordering violations
system.cpu.iew.lsq.thread0.rescheduledLoads           96                       # Number of loads that were rescheduled
system.cpu.iew.lsq.thread0.squashedLoads        11041                       # Number of loads squashed
system.cpu.iew.lsq.thread0.squashedStores         6489                       # Number of stores squashed
system.cpu.iew.memOrderViolationEvents            247                       # Number of memory order violations
system.cpu.iew.predictedNotTakenIncorrect          704                       # Number of branches that were predicted not taken incorrectly
system.cpu.iew.predictedTakenIncorrect            463                       # Number of branches that were predicted taken incorrectly
system.cpu.iew.wb_consumers                   4591482                       # num instructions consuming a value
system.cpu.iew.wb_count                       3800429                       # cumulative count of insts written-back
system.cpu.iew.wb_fanout                     0.624588                       # average fanout of values written-back
system.cpu.iew.wb_producers                   2867786                       # num instructions producing a value
system.cpu.iew.wb_rate                       1.749185                       # insts written-back per cycle
system.cpu.iew.wb_sent                        3800928                       # cumulative count of insts sent to commit
system.cpu.int_regfile_reads                  4585751                       # number of integer regfile reads
system.cpu.int_regfile_writes                 2766253                       # number of integer regfile writes
system.cpu.ipc                               1.742525                       # IPC: Instructions Per Cycle
system.cpu.ipc_total                         1.742525                       # IPC: Total IPC of All Threads
system.cpu.iq.FU_type_0::No_OpClass                 4      0.00%      0.00% # Type of FU issued
system.cpu.iq.FU_type_0::IntAlu               2347623     61.73%     61.73% # Type of FU issued
system.cpu.iq.FU_type_0::IntMult               100124      2.63%     64.36% # Type of FU issued
system.cpu.iq.FU_type_0::IntDiv                     0      0.00%     64.36% # Type of FU issued
system.cpu.iq.FU_type_0::FloatAdd                   0      0.00%     64.36% # Type of FU issued
system.cpu.iq.FU_type_0::FloatCmp                   0      0.00%     64.36% # Type of FU issued
system.cpu.iq.FU_type_0::FloatCvt                   0      0.00%     64.36% # Type of FU issued
system.cpu.iq.FU_type_0::FloatMult                  0      0.00%     64.36% # Type of FU issued
system.cpu.iq.FU_type_0::FloatMultAcc               0      0.00%     64.36% # Type of FU issued
system.cpu.iq.FU_type_0::FloatDiv                   0      0.00%     64.36% # Type of FU issued
system.cpu.iq.FU_type_0::FloatMisc                  0      0.00%     64.36% # Type of FU issued
system.cpu.iq.FU_type_0::FloatSqrt                  0      0.00%     64.36% # Type of FU issued
system.cpu.iq.FU_type_0::SimdAdd                    0      0.00%     64.36% # Type of FU issued
system.cpu.iq.FU_type_0::SimdAddAcc                 0      0.00%     64.36% # Type of FU issued
system.cpu.iq.FU_type_0::SimdAlu                    0      0.00%     64.36% # Type of FU issued
system.cpu.iq.FU_type_0::SimdCmp                    0      0.00%     64.36% # Type of FU issued
system.cpu.iq.FU_type_0::SimdCvt                    0      0.00%     64.36% # Type of FU issued
system.cpu.iq.FU_type_0::SimdMisc                   0      0.00%     64.36% # Type of FU issued
system.cpu.iq.FU_type_0::SimdMult                   0      0.00%     64.36% # Type of FU issued
system.cpu.iq.FU_type_0::SimdMultAcc                0      0.00%     64.36% # Type of FU issued
system.cpu.iq.FU_type_0::SimdShift                  0      0.00%     64.36% # Type of FU issued
system.cpu.iq.FU_type_0::SimdShiftAcc               0      0.00%     64.36% # Type of FU issued
system.cpu.iq.FU_type_0::SimdDiv                    0      0.00%     64.36% # Type of FU issued
system.cpu.iq.FU_type_0::SimdSqrt                   0      0.00%     64.36% # Type of FU issued
system.cpu.iq.FU_type_0::SimdFloatAdd               0      0.00%     64.36% # Type of FU issued
system.cpu.iq.FU_type_0::SimdFloatAlu               0      0.00%     64.36% # Type of FU issued
system.cpu.iq.FU_type_0::SimdFloatCmp               0      0.00%     64.36% # Type of FU issued
system.cpu.iq.FU_type_0::SimdFloatCvt               0      0.00%     64.36% # Type of FU issued
system.cpu.iq.FU_type_0::SimdFloatDiv               0      0.00%     64.36% # Type of FU issued
system.cpu.iq.FU_type_0::SimdFloatMisc              0      0.00%     64.36% # Type of FU issued
system.cpu.iq.FU_type_0::SimdFloatMult              0      0.00%     64.36% # Type of FU issued
system.cpu.iq.FU_type_0::SimdFloatMultAcc            0      0.00%     64.36% # Type of FU issued
system.cpu.iq.FU_type_0::SimdFloatSqrt              0      0.00%     64.36% # Type of FU issued
system.cpu.iq.FU_type_0::SimdReduceAdd              0      0.00%     64.36% # Type of FU issued
system.cpu.iq.FU_type_0::SimdReduceAlu              0      0.00%     64.36% # Type of FU issued
system.cpu.iq.FU_type_0::SimdReduceCmp              0      0.00%     64.36% # Type of FU issued
system.cpu.iq.FU_type_0::SimdFloatReduceAdd            0      0.00%     64.36% # Type of FU issued
system.cpu.iq.FU_type_0::SimdFloatReduceCmp            0      0.00%     64.36% # Type of FU issued
system.cpu.iq.FU_type_0::SimdAes                    0      0.00%     64.36% # Type of FU issued
system.cpu.iq.FU_type_0::SimdAesMix                 0      0.00%     64.36% # Type of FU issued
system.cpu.iq.FU_type_0::SimdSha1Hash               0      0.00%     64.36% # Type of FU issued
system.cpu.iq.FU_type_0::SimdSha1Hash2              0      0.00%     64.36% # Type of FU issued
system.cpu.iq.FU_type_0::SimdSha256Hash             0      0.00%     64.36% # Type of FU issued
system.cpu.iq.FU_type_0::SimdSha256Hash2            0      0.00%     64.36% # Type of FU issued
system.cpu.iq.FU_type_0::SimdShaSigma2              0      0.00%     64.36% # Type of FU issued
system.cpu.iq.FU_type_0::SimdShaSigma3              0      0.00%     64.36% # Type of FU issued
system.cpu.iq.FU_type_0::SimdPredAlu                0      0.00%     64.36% # Type of FU issued
system.cpu.iq.FU_type_0::MemRead               835617     21.97%     86.33% # Type of FU issued
system.cpu.iq.FU_type_0::MemWrite              519706     13.67%    100.00% # Type of FU issued
system.cpu.iq.FU_type_0::FloatMemRead               0      0.00%    100.00% # Type of FU issued
system.cpu.iq.FU_type_0::FloatMemWrite              0      0.00%    100.00% # Type of FU issued
system.cpu.iq.FU_type_0::IprAccess                  0      0.00%    100.00% # Type of FU issued
system.cpu.iq.FU_type_0::InstPrefetch               0      0.00%    100.00% # Type of FU issued
system.cpu.iq.FU_type_0::total                3803074                       # Type of FU issued
system.cpu.iq.fp_alu_accesses                       0                       # Number of floating point alu accesses
system.cpu.iq.fp_inst_queue_reads                   0                       # Number of floating instruction queue reads
system.cpu.iq.fp_inst_queue_wakeup_accesses            0                       # Number of floating instruction queue wakeup accesses
system.cpu.iq.fp_inst_queue_writes                  0                       # Number of floating instruction queue writes
system.cpu.iq.fu_busy_cnt                           0                       # FU busy when requested
system.cpu.iq.fu_busy_rate                          0                       # FU busy rate (busy events/executed inst)
system.cpu.iq.fu_full::No_OpClass                   0                       # attempts to use FU when none available
system.cpu.iq.fu_full::IntAlu                       0                       # attempts to use FU when none available
system.cpu.iq.fu_full::IntMult                      0                       # attempts to use FU when none available
system.cpu.iq.fu_full::IntDiv                       0                       # attempts to use FU when none available
system.cpu.iq.fu_full::FloatAdd                     0                       # attempts to use FU when none available
system.cpu.iq.fu_full::FloatCmp                     0                       # attempts to use FU when none available
system.cpu.iq.fu_full::FloatCvt                     0                       # attempts to use FU when none available
system.cpu.iq.fu_full::FloatMult                    0                       # attempts to use FU when none available
system.cpu.iq.fu_full::FloatMultAcc                 0                       # attempts to use FU when none available
system.cpu.iq.fu_full::FloatDiv                     0                       # attempts to use FU when none available
system.cpu.iq.fu_full::FloatMisc                    0                       # attempts to use FU when none available
system.cpu.iq.fu_full::FloatSqrt                    0                       # attempts to use FU when none available
system.cpu.iq.fu_full::SimdAdd                      0                       # attempts to use FU when none available
system.cpu.iq.fu_full::SimdAddAcc                   0                       # attempts to use FU when none available
system.cpu.iq.fu_full::SimdAlu                      0                       # attempts to use FU when none available
system.cpu.iq.fu_full::SimdCmp                      0                       # attempts to use FU when none available
system.cpu.iq.fu_full::SimdCvt                      0                       # attempts to use FU when none available
system.cpu.iq.fu_full::SimdMisc                     0                       # attempts to use FU when none available
system.cpu.iq.fu_full::SimdMult                     0                       # attempts to use FU when none available
system.cpu.iq.fu_full::SimdMultAcc                  0                       # attempts to use FU when none available
system.cpu.iq.fu_full::SimdShift                    0                       # attempts to use FU when none available
system.cpu.iq.fu_full::SimdShiftAcc                 0                       # attempts to use FU when none available
system.cpu.iq.fu_full::SimdDiv                      0                       # attempts to use FU when none available
system.cpu.iq.fu_full::SimdSqrt                     0                       # attempts to use FU when none available
system.cpu.iq.fu_full::SimdFloatAdd                 0                       # attempts to use FU when none available
system.cpu.iq.fu_full::SimdFloatAlu                 0                       # attempts to use FU when none available
system.cpu.iq.fu_full::SimdFloatCmp                 0                       # attempts to use FU when none available
system.cpu.iq.fu_full::SimdFloatCvt                 0                       # attempts to use FU when none available
system.cpu.iq.fu_full::SimdFloatDiv                 0                       # attempts to use FU when none available
system.cpu.iq.fu_full::SimdFloatMisc                0                       # attempts to use FU when none available
system.cpu.iq.fu_full::SimdFloatMult                0                       # attempts to use FU when none available
system.cpu.iq.fu_full::SimdFloatMultAcc             0                       # attempts to use FU when none available
system.cpu.iq.fu_full::SimdFloatSqrt                0                       # attempts to use FU when none available
system.cpu.iq.fu_full::SimdReduceAdd                0                       # attempts to use FU when none available
system.cpu.iq.fu_full::SimdReduceAlu                0                       # attempts to use FU when none available
system.cpu.iq.fu_full::SimdReduceCmp                0                       # attempts to use FU when none available
system.cpu.iq.fu_full::SimdFloatReduceAdd            0                       # attempts to use FU when none available
system.cpu.iq.fu_full::SimdFloatReduceCmp            0                       # attempts to use FU when none available
system.cpu.iq.fu_full::SimdAes                      0                       # attempts to use FU when none available
system.cpu.iq.fu_full::SimdAesMix                   0                       # attempts to use FU when none available
system.cpu.iq.fu_full::SimdSha1Hash                 0                       # attempts to use FU when none available
system.cpu.iq.fu_full::SimdSha1Hash2                0                       # attempts to use FU when none available
system.cpu.iq.fu_full::SimdSha256Hash               0                       # attempts to use FU when none available
system.cpu.iq.fu_full::SimdSha256Hash2              0                       # attempts to use FU when none available
system.cpu.iq.fu_full::SimdShaSigma2                0                       # attempts to use FU when none available
system.cpu.iq.fu_full::SimdShaSigma3                0                       # attempts to use FU when none available
system.cpu.iq.fu_full::SimdPredAlu                  0                       # attempts to use FU when none available
system.cpu.iq.fu_full::MemRead                      0                       # attempts to use FU when none available
system.cpu.iq.fu_full::MemWrite                     0                       # attempts to use FU when none available
system.cpu.iq.fu_full::FloatMemRead                 0                       # attempts to use FU when none available
system.cpu.iq.fu_full::FloatMemWrite                0                       # attempts to use FU when none available
system.cpu.iq.fu_full::IprAccess                    0                       # attempts to use FU when none available
system.cpu.iq.fu_full::InstPrefetch                 0                       # attempts to use FU when none available
system.cpu.iq.int_alu_accesses                3803070                       # Number of integer alu accesses
system.cpu.iq.int_inst_queue_reads            9757103                       # Number of integer instruction queue reads
system.cpu.iq.int_inst_queue_wakeup_accesses      3800429                       # Number of integer instruction queue wakeup accesses
system.cpu.iq.int_inst_queue_writes           3876714                       # Number of integer instruction queue writes
system.cpu.iq.iqInstsAdded                    3831738                       # Number of instructions added to the IQ (excludes non-spec)
system.cpu.iq.iqInstsIssued                   3803074                       # Number of instructions issued
system.cpu.iq.iqNonSpecInstsAdded                  45                       # Number of non-speculative instructions added to the IQ
system.cpu.iq.iqSquashedInstsExamined           44698                       # Number of squashed instructions iterated over during squash; mainly for profiling
system.cpu.iq.iqSquashedInstsIssued               216                       # Number of squashed instructions issued
system.cpu.iq.iqSquashedNonSpecRemoved              8                       # Number of squashed non-spec instructions that were removed
system.cpu.iq.iqSquashedOperandsExamined       145090                       # Number of squashed operands that are examined and possibly removed from graph
system.cpu.iq.issued_per_cycle::samples       2150739                       # Number of insts issued each cycle
system.cpu.iq.issued_per_cycle::mean         1.768264                       # Number of insts issued each cycle
system.cpu.iq.issued_per_cycle::stdev        1.286469                       # Number of insts issued each cycle
system.cpu.iq.issued_per_cycle::underflows            0      0.00%      0.00% # Number of insts issued each cycle
system.cpu.iq.issued_per_cycle::0              286623     13.33%     13.33% # Number of insts issued each cycle
system.cpu.iq.issued_per_cycle::1              884698     41.13%     54.46% # Number of insts issued each cycle
system.cpu.iq.issued_per_cycle::2              362000     16.83%     71.29% # Number of insts issued each cycle
system.cpu.iq.issued_per_cycle::3              275296     12.80%     84.09% # Number of insts issued each cycle
system.cpu.iq.issued_per_cycle::4              342122     15.91%    100.00% # Number of insts issued each cycle
system.cpu.iq.issued_per_cycle::overflows            0      0.00%    100.00% # Number of insts issued each cycle
system.cpu.iq.issued_per_cycle::min_value            0                       # Number of insts issued each cycle
system.cpu.iq.issued_per_cycle::max_value            4                       # Number of insts issued each cycle
system.cpu.iq.issued_per_cycle::total         2150739                       # Number of insts issued each cycle
system.cpu.iq.rate                           1.750403                       # Inst issue rate
system.cpu.iq.vec_alu_accesses                      0                       # Number of vector alu accesses
system.cpu.iq.vec_inst_queue_reads                  0                       # Number of vector instruction queue reads
system.cpu.iq.vec_inst_queue_wakeup_accesses            0                       # Number of vector instruction queue wakeup accesses
system.cpu.iq.vec_inst_queue_writes                 0                       # Number of vector instruction queue writes
system.cpu.itb.accesses                             0                       # DTB accesses
system.cpu.itb.align_faults                         0                       # Number of TLB faults due to alignment restrictions
system.cpu.itb.domain_faults                        0                       # Number of TLB faults due to domain restrictions
system.cpu.itb.flush_entries                        0                       # Number of entries that have been flushed from TLB
system.cpu.itb.flush_tlb                            0                       # Number of times complete TLB was flushed
system.cpu.itb.flush_tlb_asid                       0                       # Number of times TLB was flushed by ASID
system.cpu.itb.flush_tlb_mva                        0                       # Number of times TLB was flushed by MVA
system.cpu.itb.flush_tlb_mva_asid                   0                       # Number of times TLB was flushed by MVA & ASID
system.cpu.itb.hits                                 0                       # DTB hits
system.cpu.itb.inst_accesses                        0                       # ITB inst accesses
system.cpu.itb.inst_hits                            0                       # ITB inst hits
system.cpu.itb.inst_misses                          0                       # ITB inst misses
system.cpu.itb.misses                               0                       # DTB misses
system.cpu.itb.perms_faults                         0                       # Number of TLB faults due to permissions restrictions
system.cpu.itb.prefetch_faults                      0                       # Number of TLB faults due to prefetch
system.cpu.itb.read_accesses                        0                       # DTB read accesses
system.cpu.itb.read_hits                            0                       # DTB read hits
system.cpu.itb.read_misses                          0                       # DTB read misses
system.cpu.itb.stage2_mmu.stage2_tlb.accesses            0                       # DTB accesses
system.cpu.itb.stage2_mmu.stage2_tlb.align_faults            0                       # Number of TLB faults due to alignment restrictions
system.cpu.itb.stage2_mmu.stage2_tlb.domain_faults            0                       # Number of TLB faults due to domain restrictions
system.cpu.itb.stage2_mmu.stage2_tlb.flush_entries            0                       # Number of entries that have been flushed from TLB
system.cpu.itb.stage2_mmu.stage2_tlb.flush_tlb            0                       # Number of times complete TLB was flushed
system.cpu.itb.stage2_mmu.stage2_tlb.flush_tlb_asid            0                       # Number of times TLB was flushed by ASID
system.cpu.itb.stage2_mmu.stage2_tlb.flush_tlb_mva            0                       # Number of times TLB was flushed by MVA
system.cpu.itb.stage2_mmu.stage2_tlb.flush_tlb_mva_asid            0                       # Number of times TLB was flushed by MVA & ASID
system.cpu.itb.stage2_mmu.stage2_tlb.hits            0                       # DTB hits
system.cpu.itb.stage2_mmu.stage2_tlb.inst_accesses            0                       # ITB inst accesses
system.cpu.itb.stage2_mmu.stage2_tlb.inst_hits            0                       # ITB inst hits
system.cpu.itb.stage2_mmu.stage2_tlb.inst_misses            0                       # ITB inst misses
system.cpu.itb.stage2_mmu.stage2_tlb.misses            0                       # DTB misses
system.cpu.itb.stage2_mmu.stage2_tlb.perms_faults            0                       # Number of TLB faults due to permissions restrictions
system.cpu.itb.stage2_mmu.stage2_tlb.prefetch_faults            0                       # Number of TLB faults due to prefetch
system.cpu.itb.stage2_mmu.stage2_tlb.read_accesses            0                       # DTB read accesses
system.cpu.itb.stage2_mmu.stage2_tlb.read_hits            0                       # DTB read hits
system.cpu.itb.stage2_mmu.stage2_tlb.read_misses            0                       # DTB read misses
system.cpu.itb.stage2_mmu.stage2_tlb.walker.walkRequestOrigin_Requested::Data            0                       # Table walker requests started/completed, data/inst
system.cpu.itb.stage2_mmu.stage2_tlb.walker.walkRequestOrigin_Requested::Inst            0                       # Table walker requests started/completed, data/inst
system.cpu.itb.stage2_mmu.stage2_tlb.walker.walkRequestOrigin_Requested::total            0                       # Table walker requests started/completed, data/inst
system.cpu.itb.stage2_mmu.stage2_tlb.walker.walkRequestOrigin_Completed::Data            0                       # Table walker requests started/completed, data/inst
system.cpu.itb.stage2_mmu.stage2_tlb.walker.walkRequestOrigin_Completed::Inst            0                       # Table walker requests started/completed, data/inst
system.cpu.itb.stage2_mmu.stage2_tlb.walker.walkRequestOrigin_Completed::total            0                       # Table walker requests started/completed, data/inst
system.cpu.itb.stage2_mmu.stage2_tlb.walker.walkRequestOrigin::total            0                       # Table walker requests started/completed, data/inst
system.cpu.itb.stage2_mmu.stage2_tlb.walker.walks            0                       # Table walker walks requested
system.cpu.itb.stage2_mmu.stage2_tlb.write_accesses            0                       # DTB write accesses
system.cpu.itb.stage2_mmu.stage2_tlb.write_hits            0                       # DTB write hits
system.cpu.itb.stage2_mmu.stage2_tlb.write_misses            0                       # DTB write misses
system.cpu.itb.walker.walkRequestOrigin_Requested::Data            0                       # Table walker requests started/completed, data/inst
system.cpu.itb.walker.walkRequestOrigin_Requested::Inst            0                       # Table walker requests started/completed, data/inst
system.cpu.itb.walker.walkRequestOrigin_Requested::total            0                       # Table walker requests started/completed, data/inst
system.cpu.itb.walker.walkRequestOrigin_Completed::Data            0                       # Table walker requests started/completed, data/inst
system.cpu.itb.walker.walkRequestOrigin_Completed::Inst            0                       # Table walker requests started/completed, data/inst
system.cpu.itb.walker.walkRequestOrigin_Completed::total            0                       # Table walker requests started/completed, data/inst
system.cpu.itb.walker.walkRequestOrigin::total            0                       # Table walker requests started/completed, data/inst
system.cpu.itb.walker.walks                         0                       # Table walker walks requested
system.cpu.itb.write_accesses                       0                       # DTB write accesses
system.cpu.itb.write_hits                           0                       # DTB write hits
system.cpu.itb.write_misses                         0                       # DTB write misses
system.cpu.memDep0.conflictingLoads            673711                       # Number of conflicting loads.
system.cpu.memDep0.conflictingStores           220654                       # Number of conflicting stores.
system.cpu.memDep0.insertedLoads               840934                       # Number of loads inserted to the mem dependence unit.
system.cpu.memDep0.insertedStores              523642                       # Number of stores inserted to the mem dependence unit.
system.cpu.misc_regfile_reads                 3171807                       # number of misc regfile reads
system.cpu.misc_regfile_writes                     57                       # number of misc regfile writes
system.cpu.numCycles                          2172685                       # number of cpu cycles simulated
system.cpu.numWorkItemsCompleted                    0                       # number of work items this cpu completed
system.cpu.numWorkItemsStarted                      0                       # number of work items this cpu started
system.cpu.rename.BlockCycles                  501169                       # Number of cycles rename is blocking
system.cpu.rename.CommittedMaps               3631595                       # Number of HB maps that are committed
system.cpu.rename.IQFullEvents                 964602                       # Number of times rename has blocked due to IQ full
system.cpu.rename.IdleCycles                   248867                       # Number of cycles rename is idle
system.cpu.rename.LQFullEvents                     26                       # Number of times rename has blocked due to LQ full
system.cpu.rename.RenameLookups              17616637                       # Number of register rename lookups that rename has made
system.cpu.rename.RenamedInsts                3837394                       # Number of instructions processed by rename
system.cpu.rename.RenamedOperands             3680879                       # Number of destination operands rename has renamed
system.cpu.rename.RunCycles                    374653                       # Number of cycles rename is running
system.cpu.rename.SQFullEvents                   1738                       # Number of times rename has blocked due to SQ full
system.cpu.rename.SquashCycles                   1341                       # Number of cycles rename is squashing
system.cpu.rename.UnblockCycles               1022695                       # Number of cycles rename is unblocking
system.cpu.rename.UndoneMaps                    49284                       # Number of HB maps that are undone due to squashing
system.cpu.rename.int_rename_lookups          4737515                       # Number of integer rename lookups
system.cpu.rename.serializeStallCycles           2014                       # count of cycles rename stalled for serializing inst
system.cpu.rename.serializingInsts                 33                       # count of serializing insts renamed
system.cpu.rename.skidInsts                   2030578                       # count of insts added to the skid buffer
system.cpu.rename.tempSerializingInsts             33                       # count of temporary serializing insts renamed
system.cpu.rename.vec_rename_lookups               16                       # Number of vector rename lookups
system.cpu.rob.rob_reads                      5734711                       # The number of ROB reads
system.cpu.rob.rob_writes                     7669890                       # The number of ROB writes
system.cpu.timesIdled                             207                       # Number of times that the entire CPU went into an idle state and unscheduled itself
system.cpu.vec_regfile_reads                       16                       # number of vector regfile reads
system.cpu.workload.numSyscalls                     9                       # Number of system calls
system.membus.snoop_filter.hit_multi_requests            0                       # Number of requests hitting in the snoop filter with multiple (>1) holders of the requested data.
system.membus.snoop_filter.hit_multi_snoops            0                       # Number of snoops hitting in the snoop filter with multiple (>1) holders of the requested data.
system.membus.snoop_filter.hit_single_requests            0                       # Number of requests hitting in the snoop filter with a single holder of the requested data.
system.membus.snoop_filter.hit_single_snoops            0                       # Number of snoops hitting in the snoop filter with a single holder of the requested data.
system.membus.snoop_filter.tot_requests           480                       # Total number of requests made to the snoop filter.
system.membus.snoop_filter.tot_snoops               0                       # Total number of snoops made to the snoop filter.
system.tol2bus.snoop_filter.hit_multi_requests           15                       # Number of requests hitting in the snoop filter with multiple (>1) holders of the requested data.
system.tol2bus.snoop_filter.hit_multi_snoops            0                       # Number of snoops hitting in the snoop filter with multiple (>1) holders of the requested data.
system.tol2bus.snoop_filter.hit_single_requests          170                       # Number of requests hitting in the snoop filter with a single holder of the requested data.
system.tol2bus.snoop_filter.hit_single_snoops            0                       # Number of snoops hitting in the snoop filter with a single holder of the requested data.
system.tol2bus.snoop_filter.tot_requests          689                       # Total number of requests made to the snoop filter.
system.tol2bus.snoop_filter.tot_snoops              0                       # Total number of snoops made to the snoop filter.
system.membus.trans_dist::ReadResp                423                       # Transaction distribution
system.membus.trans_dist::ReadExReq                56                       # Transaction distribution
system.membus.trans_dist::ReadExResp               56                       # Transaction distribution
system.membus.trans_dist::ReadSharedReq           424                       # Transaction distribution
system.membus.pkt_count_system.l2.mem_side::system.mem_ctrls.port          959                       # Packet count per connected master and slave (bytes)
system.membus.pkt_count::total                    959                       # Packet count per connected master and slave (bytes)
system.membus.pkt_size_system.l2.mem_side::system.mem_ctrls.port        30656                       # Cumulative packet size per connected master and slave (bytes)
system.membus.pkt_size::total                   30656                       # Cumulative packet size per connected master and slave (bytes)
system.membus.snoops                                0                       # Total snoops (count)
system.membus.snoopTraffic                          0                       # Total snoop traffic (bytes)
system.membus.snoop_fanout::samples               480                       # Request fanout histogram
system.membus.snoop_fanout::mean                    0                       # Request fanout histogram
system.membus.snoop_fanout::stdev                   0                       # Request fanout histogram
system.membus.snoop_fanout::underflows              0      0.00%      0.00% # Request fanout histogram
system.membus.snoop_fanout::0                     480    100.00%    100.00% # Request fanout histogram
system.membus.snoop_fanout::1                       0      0.00%    100.00% # Request fanout histogram
system.membus.snoop_fanout::overflows               0      0.00%    100.00% # Request fanout histogram
system.membus.snoop_fanout::min_value               0                       # Request fanout histogram
system.membus.snoop_fanout::max_value               0                       # Request fanout histogram
system.membus.snoop_fanout::total                 480                       # Request fanout histogram
system.membus.reqLayer0.occupancy              592500                       # Layer occupancy (ticks)
system.membus.reqLayer0.utilization               0.1                       # Layer utilization (%)
system.membus.respLayer1.occupancy            2531000                       # Layer occupancy (ticks)
system.membus.respLayer1.utilization              0.2                       # Layer utilization (%)
system.membus.power_state.pwrStateResidencyTicks::UNDEFINED   1086342000                       # Cumulative time (in ticks) in various power states
system.tol2bus.trans_dist::ReadResp               492                       # Transaction distribution
system.tol2bus.trans_dist::WritebackDirty            1                       # Transaction distribution
system.tol2bus.trans_dist::WritebackClean          136                       # Transaction distribution
system.tol2bus.trans_dist::CleanEvict               2                       # Transaction distribution
system.tol2bus.trans_dist::ReadExReq               56                       # Transaction distribution
system.tol2bus.trans_dist::ReadExResp              56                       # Transaction distribution
system.tol2bus.trans_dist::ReadCleanReq           366                       # Transaction distribution
system.tol2bus.trans_dist::ReadSharedReq          128                       # Transaction distribution
system.tol2bus.pkt_count_system.cpu.icache.mem_side::system.l2.cpu_side          866                       # Packet count per connected master and slave (bytes)
system.tol2bus.pkt_count_system.cpu.dcache.mem_side::system.l2.cpu_side          371                       # Packet count per connected master and slave (bytes)
system.tol2bus.pkt_count::total                  1237                       # Packet count per connected master and slave (bytes)
system.tol2bus.pkt_size_system.cpu.icache.mem_side::system.l2.cpu_side        32000                       # Cumulative packet size per connected master and slave (bytes)
system.tol2bus.pkt_size_system.cpu.dcache.mem_side::system.l2.cpu_side        11840                       # Cumulative packet size per connected master and slave (bytes)
system.tol2bus.pkt_size::total                  43840                       # Cumulative packet size per connected master and slave (bytes)
system.tol2bus.snoops                               0                       # Total snoops (count)
system.tol2bus.snoopTraffic                         0                       # Total snoop traffic (bytes)
system.tol2bus.snoop_fanout::samples              550                       # Request fanout histogram
system.tol2bus.snoop_fanout::mean            0.083636                       # Request fanout histogram
system.tol2bus.snoop_fanout::stdev           0.277094                       # Request fanout histogram
system.tol2bus.snoop_fanout::underflows             0      0.00%      0.00% # Request fanout histogram
system.tol2bus.snoop_fanout::0                    504     91.64%     91.64% # Request fanout histogram
system.tol2bus.snoop_fanout::1                     46      8.36%    100.00% # Request fanout histogram
system.tol2bus.snoop_fanout::2                      0      0.00%    100.00% # Request fanout histogram
system.tol2bus.snoop_fanout::overflows              0      0.00%    100.00% # Request fanout histogram
system.tol2bus.snoop_fanout::min_value              0                       # Request fanout histogram
system.tol2bus.snoop_fanout::max_value              1                       # Request fanout histogram
system.tol2bus.snoop_fanout::total                550                       # Request fanout histogram
system.tol2bus.reqLayer0.occupancy             481500                       # Layer occupancy (ticks)
system.tol2bus.reqLayer0.utilization              0.0                       # Layer utilization (%)
system.tol2bus.respLayer1.occupancy            280491                       # Layer occupancy (ticks)
system.tol2bus.respLayer1.utilization             0.0                       # Layer utilization (%)
system.tol2bus.respLayer0.occupancy            546998                       # Layer occupancy (ticks)
system.tol2bus.respLayer0.utilization             0.1                       # Layer utilization (%)
system.tol2bus.power_state.pwrStateResidencyTicks::UNDEFINED   1086342000                       # Cumulative time (in ticks) in various power states
system.voltage_domain.voltage                       1                       # Voltage in Volts
system.clk_domain.clock                          1000                       # Clock period in ticks
system.l2.demand_hits::.cpu.inst                   39                       # number of demand (read+write) hits
system.l2.demand_hits::.cpu.data                   20                       # number of demand (read+write) hits
system.l2.demand_hits::total                       59                       # number of demand (read+write) hits
system.l2.overall_hits::.cpu.inst                  39                       # number of overall hits
system.l2.overall_hits::.cpu.data                  20                       # number of overall hits
system.l2.overall_hits::total                      59                       # number of overall hits
system.l2.demand_misses::.cpu.inst                327                       # number of demand (read+write) misses
system.l2.demand_misses::.cpu.data                164                       # number of demand (read+write) misses
system.l2.demand_misses::total                    491                       # number of demand (read+write) misses
system.l2.overall_misses::.cpu.inst               327                       # number of overall misses
system.l2.overall_misses::.cpu.data               164                       # number of overall misses
system.l2.overall_misses::total                   491                       # number of overall misses
system.l2.demand_miss_latency::.cpu.inst     24697000                       # number of demand (read+write) miss cycles
system.l2.demand_miss_latency::.cpu.data     14033000                       # number of demand (read+write) miss cycles
system.l2.demand_miss_latency::total         38730000                       # number of demand (read+write) miss cycles
system.l2.overall_miss_latency::.cpu.inst     24697000                       # number of overall miss cycles
system.l2.overall_miss_latency::.cpu.data     14033000                       # number of overall miss cycles
system.l2.overall_miss_latency::total        38730000                       # number of overall miss cycles
system.l2.demand_accesses::.cpu.inst              366                       # number of demand (read+write) accesses
system.l2.demand_accesses::.cpu.data              184                       # number of demand (read+write) accesses
system.l2.demand_accesses::total                  550                       # number of demand (read+write) accesses
system.l2.overall_accesses::.cpu.inst             366                       # number of overall (read+write) accesses
system.l2.overall_accesses::.cpu.data             184                       # number of overall (read+write) accesses
system.l2.overall_accesses::total                 550                       # number of overall (read+write) accesses
system.l2.demand_miss_rate::.cpu.inst        0.893443                       # miss rate for demand accesses
system.l2.demand_miss_rate::.cpu.data        0.891304                       # miss rate for demand accesses
system.l2.demand_miss_rate::total            0.892727                       # miss rate for demand accesses
system.l2.overall_miss_rate::.cpu.inst       0.893443                       # miss rate for overall accesses
system.l2.overall_miss_rate::.cpu.data       0.891304                       # miss rate for overall accesses
system.l2.overall_miss_rate::total           0.892727                       # miss rate for overall accesses
system.l2.demand_avg_miss_latency::.cpu.inst 75525.993884                       # average overall miss latency
system.l2.demand_avg_miss_latency::.cpu.data 85567.073171                       # average overall miss latency
system.l2.demand_avg_miss_latency::total 78879.837067                       # average overall miss latency
system.l2.overall_avg_miss_latency::.cpu.inst 75525.993884                       # average overall miss latency
system.l2.overall_avg_miss_latency::.cpu.data 85567.073171                       # average overall miss latency
system.l2.overall_avg_miss_latency::total 78879.837067                       # average overall miss latency
system.l2.blocked_cycles::no_mshrs                  0                       # number of cycles access was blocked
[...]
system.cpu.icache.ReadReq_miss_rate::.cpu.inst     0.001024                       # miss rate for ReadReq accesses
system.cpu.icache.ReadReq_miss_rate::total     0.001024                       # miss rate for ReadReq accesses
system.cpu.icache.ReadReq_avg_miss_latency::.cpu.inst 66538.947368                       # average ReadReq miss latency
system.cpu.icache.ReadReq_avg_miss_latency::total 66538.947368                       # average ReadReq miss latency
system.cpu.icache.ReadReq_mshr_hits::.cpu.inst          109                       # number of ReadReq MSHR hits
system.cpu.icache.ReadReq_mshr_hits::total          109                       # number of ReadReq MSHR hits
system.cpu.icache.ReadReq_mshr_misses::.cpu.inst          366                       # number of ReadReq MSHR misses
system.cpu.icache.ReadReq_mshr_misses::total          366                       # number of ReadReq MSHR misses
system.cpu.icache.ReadReq_mshr_miss_latency::.cpu.inst     25677500                       # number of ReadReq MSHR miss cycles
system.cpu.icache.ReadReq_mshr_miss_latency::total     25677500                       # number of ReadReq MSHR miss cycles
system.cpu.icache.ReadReq_mshr_miss_rate::.cpu.inst     0.000789                       # mshr miss rate for ReadReq accesses
system.cpu.icache.ReadReq_mshr_miss_rate::total     0.000789                       # mshr miss rate for ReadReq accesses
system.cpu.icache.ReadReq_avg_mshr_miss_latency::.cpu.inst 70157.103825                       # average ReadReq mshr miss latency
system.cpu.icache.ReadReq_avg_mshr_miss_latency::total 70157.103825                       # average ReadReq mshr miss latency
system.cpu.icache.power_state.pwrStateResidencyTicks::UNDEFINED   1086342000                       # Cumulative time (in ticks) in various power states
system.cpu.icache.tags.tagsinuse           215.579226                       # Cycle average of tags in use
system.cpu.icache.tags.total_refs              463658                       # Total number of references to valid blocks.
system.cpu.icache.tags.sampled_refs               364                       # Sample count of references to valid blocks.
system.cpu.icache.tags.avg_refs           1273.785714                       # Average number of references to valid blocks.
system.cpu.icache.tags.warmup_cycle             87500                       # Cycle when the warmup percentage was hit.
system.cpu.icache.tags.occ_blocks::.cpu.inst   215.579226                       # Average occupied blocks per requestor
system.cpu.icache.tags.occ_percent::.cpu.inst     0.842106                       # Average percentage of cache occupancy
system.cpu.icache.tags.occ_percent::total     0.842106                       # Average percentage of cache occupancy
system.cpu.icache.tags.occ_task_id_blocks::1024          228                       # Occupied blocks per task id
system.cpu.icache.tags.age_task_id_blocks_1024::0           50                       # Occupied blocks per task id
system.cpu.icache.tags.age_task_id_blocks_1024::3          178                       # Occupied blocks per task id
system.cpu.icache.tags.occ_task_id_percent::1024     0.890625                       # Percentage of cache occupancy per task id
system.cpu.icache.tags.tag_accesses            927902                       # Number of tag accesses
system.cpu.icache.tags.data_accesses           927902                       # Number of data accesses
system.cpu.icache.tags.power_state.pwrStateResidencyTicks::UNDEFINED   1086342000                       # Cumulative time (in ticks) in various power states
system.cpu.dtb.walker.power_state.pwrStateResidencyTicks::UNDEFINED   1086342000                       # Cumulative time (in ticks) in various power states
system.cpu.dtb.stage2_mmu.stage2_tlb.walker.power_state.pwrStateResidencyTicks::UNDEFINED   1086342000                       # Cumulative time (in ticks) in various power states
system.cpu.itb.walker.power_state.pwrStateResidencyTicks::UNDEFINED   1086342000                       # Cumulative time (in ticks) in various power states
system.cpu.itb.stage2_mmu.stage2_tlb.walker.power_state.pwrStateResidencyTicks::UNDEFINED   1086342000                       # Cumulative time (in ticks) in various power states
system.cpu.dcache.demand_hits::.cpu.data       822679                       # number of demand (read+write) hits
system.cpu.dcache.demand_hits::total           822679                       # number of demand (read+write) hits
system.cpu.dcache.overall_hits::.cpu.data       822679                       # number of overall hits
system.cpu.dcache.overall_hits::total          822679                       # number of overall hits
system.cpu.dcache.demand_misses::.cpu.data          679                       # number of demand (read+write) misses
system.cpu.dcache.demand_misses::total            679                       # number of demand (read+write) misses
system.cpu.dcache.overall_misses::.cpu.data          679                       # number of overall misses
system.cpu.dcache.overall_misses::total           679                       # number of overall misses
system.cpu.dcache.demand_miss_latency::.cpu.data     50123998                       # number of demand (read+write) miss cycles
system.cpu.dcache.demand_miss_latency::total     50123998                       # number of demand (read+write) miss cycles
system.cpu.dcache.overall_miss_latency::.cpu.data     50123998                       # number of overall miss cycles
system.cpu.dcache.overall_miss_latency::total     50123998                       # number of overall miss cycles
system.cpu.dcache.demand_accesses::.cpu.data       823358                       # number of demand (read+write) accesses
system.cpu.dcache.demand_accesses::total       823358                       # number of demand (read+write) accesses
system.cpu.dcache.overall_accesses::.cpu.data       823358                       # number of overall (read+write) accesses
system.cpu.dcache.overall_accesses::total       823358                       # number of overall (read+write) accesses
system.cpu.dcache.demand_miss_rate::.cpu.data     0.000825                       # miss rate for demand accesses
system.cpu.dcache.demand_miss_rate::total     0.000825                       # miss rate for demand accesses
system.cpu.dcache.overall_miss_rate::.cpu.data     0.000825                       # miss rate for overall accesses
system.cpu.dcache.overall_miss_rate::total     0.000825                       # miss rate for overall accesses
system.cpu.dcache.demand_avg_miss_latency::.cpu.data 73820.321060                       # average overall miss latency
system.cpu.dcache.demand_avg_miss_latency::total 73820.321060                       # average overall miss latency
system.cpu.dcache.overall_avg_miss_latency::.cpu.data 73820.321060                       # average overall miss latency
system.cpu.dcache.overall_avg_miss_latency::total 73820.321060                       # average overall miss latency
system.cpu.dcache.blocked_cycles::no_mshrs          407                       # number of cycles access was blocked
system.cpu.dcache.blocked_cycles::no_targets            0                       # number of cycles access was blocked
system.cpu.dcache.blocked::no_mshrs                11                       # number of cycles access was blocked
system.cpu.dcache.blocked::no_targets               0                       # number of cycles access was blocked
system.cpu.dcache.avg_blocked_cycles::no_mshrs           37                       # average number of cycles each access was blocked
system.cpu.dcache.avg_blocked_cycles::no_targets          nan                       # average number of cycles each access was blocked
system.cpu.dcache.writebacks::.writebacks            1                       # number of writebacks
system.cpu.dcache.writebacks::total                 1                       # number of writebacks
system.cpu.dcache.demand_mshr_hits::.cpu.data          495                       # number of demand (read+write) MSHR hits
system.cpu.dcache.demand_mshr_hits::total          495                       # number of demand (read+write) MSHR hits
system.cpu.dcache.overall_mshr_hits::.cpu.data          495                       # number of overall MSHR hits
system.cpu.dcache.overall_mshr_hits::total          495                       # number of overall MSHR hits
system.cpu.dcache.demand_mshr_misses::.cpu.data          184                       # number of demand (read+write) MSHR misses
system.cpu.dcache.demand_mshr_misses::total          184                       # number of demand (read+write) MSHR misses
system.cpu.dcache.overall_mshr_misses::.cpu.data          184                       # number of overall MSHR misses
system.cpu.dcache.overall_mshr_misses::total          184                       # number of overall MSHR misses
system.cpu.dcache.demand_mshr_miss_latency::.cpu.data     14549998                       # number of demand (read+write) MSHR miss cycles
system.cpu.dcache.demand_mshr_miss_latency::total     14549998                       # number of demand (read+write) MSHR miss cycles
system.cpu.dcache.overall_mshr_miss_latency::.cpu.data     14549998                       # number of overall MSHR miss cycles
system.cpu.dcache.overall_mshr_miss_latency::total     14549998                       # number of overall MSHR miss cycles
system.cpu.dcache.demand_mshr_miss_rate::.cpu.data     0.000223                       # mshr miss rate for demand accesses
system.cpu.dcache.demand_mshr_miss_rate::total     0.000223                       # mshr miss rate for demand accesses
system.cpu.dcache.overall_mshr_miss_rate::.cpu.data     0.000223                       # mshr miss rate for overall accesses
system.cpu.dcache.overall_mshr_miss_rate::total     0.000223                       # mshr miss rate for overall accesses
system.cpu.dcache.demand_avg_mshr_miss_latency::.cpu.data 79076.076087                       # average overall mshr miss latency
system.cpu.dcache.demand_avg_mshr_miss_latency::total 79076.076087                       # average overall mshr miss latency
system.cpu.dcache.overall_avg_mshr_miss_latency::.cpu.data 79076.076087                       # average overall mshr miss latency
system.cpu.dcache.overall_avg_mshr_miss_latency::total 79076.076087                       # average overall mshr miss latency
system.cpu.dcache.replacements                      3                       # number of replacements
system.cpu.dcache.ReadReq_hits::.cpu.data       306051                       # number of ReadReq hits
system.cpu.dcache.ReadReq_hits::total          306051                       # number of ReadReq hits
system.cpu.dcache.ReadReq_misses::.cpu.data          215                       # number of ReadReq misses
system.cpu.dcache.ReadReq_misses::total           215                       # number of ReadReq misses
system.cpu.dcache.ReadReq_miss_latency::.cpu.data     14857500                       # number of ReadReq miss cycles
system.cpu.dcache.ReadReq_miss_latency::total     14857500                       # number of ReadReq miss cycles
system.cpu.dcache.ReadReq_accesses::.cpu.data       306266                       # number of ReadReq accesses(hits+misses)
system.cpu.dcache.ReadReq_accesses::total       306266                       # number of ReadReq accesses(hits+misses)
system.cpu.dcache.ReadReq_miss_rate::.cpu.data     0.000702                       # miss rate for ReadReq accesses
system.cpu.dcache.ReadReq_miss_rate::total     0.000702                       # miss rate for ReadReq accesses
system.cpu.dcache.ReadReq_avg_miss_latency::.cpu.data 69104.651163                       # average ReadReq miss latency
system.cpu.dcache.ReadReq_avg_miss_latency::total 69104.651163                       # average ReadReq miss latency
system.cpu.dcache.ReadReq_mshr_hits::.cpu.data           87                       # number of ReadReq MSHR hits
system.cpu.dcache.ReadReq_mshr_hits::total           87                       # number of ReadReq MSHR hits
system.cpu.dcache.ReadReq_mshr_misses::.cpu.data          128                       # number of ReadReq MSHR misses
system.cpu.dcache.ReadReq_mshr_misses::total          128                       # number of ReadReq MSHR misses
system.cpu.dcache.ReadReq_mshr_miss_latency::.cpu.data      9508000                       # number of ReadReq MSHR miss cycles
system.cpu.dcache.ReadReq_mshr_miss_latency::total      9508000                       # number of ReadReq MSHR miss cycles
system.cpu.dcache.ReadReq_mshr_miss_rate::.cpu.data     0.000418                       # mshr miss rate for ReadReq accesses
system.cpu.dcache.ReadReq_mshr_miss_rate::total     0.000418                       # mshr miss rate for ReadReq accesses
system.cpu.dcache.ReadReq_avg_mshr_miss_latency::.cpu.data 74281.250000                       # average ReadReq mshr miss latency
system.cpu.dcache.ReadReq_avg_mshr_miss_latency::total 74281.250000                       # average ReadReq mshr miss latency
system.cpu.dcache.WriteReq_hits::.cpu.data       516628                       # number of WriteReq hits
system.cpu.dcache.WriteReq_hits::total         516628                       # number of WriteReq hits
system.cpu.dcache.WriteReq_misses::.cpu.data          464                       # number of WriteReq misses
system.cpu.dcache.WriteReq_misses::total          464                       # number of WriteReq misses
system.cpu.dcache.WriteReq_miss_latency::.cpu.data     35266498                       # number of WriteReq miss cycles
system.cpu.dcache.WriteReq_miss_latency::total     35266498                       # number of WriteReq miss cycles
system.cpu.dcache.WriteReq_accesses::.cpu.data       517092                       # number of WriteReq accesses(hits+misses)
system.cpu.dcache.WriteReq_accesses::total       517092                       # number of WriteReq accesses(hits+misses)
system.cpu.dcache.WriteReq_miss_rate::.cpu.data     0.000897                       # miss rate for WriteReq accesses
system.cpu.dcache.WriteReq_miss_rate::total     0.000897                       # miss rate for WriteReq accesses
system.cpu.dcache.WriteReq_avg_miss_latency::.cpu.data 76005.383621                       # average WriteReq miss latency
system.cpu.dcache.WriteReq_avg_miss_latency::total 76005.383621                       # average WriteReq miss latency
system.cpu.dcache.WriteReq_mshr_hits::.cpu.data          408                       # number of WriteReq MSHR hits
system.cpu.dcache.WriteReq_mshr_hits::total          408                       # number of WriteReq MSHR hits
system.cpu.dcache.WriteReq_mshr_misses::.cpu.data           56                       # number of WriteReq MSHR misses
system.cpu.dcache.WriteReq_mshr_misses::total           56                       # number of WriteReq MSHR misses
system.cpu.dcache.WriteReq_mshr_miss_latency::.cpu.data      5041998                       # number of WriteReq MSHR miss cycles
system.cpu.dcache.WriteReq_mshr_miss_latency::total      5041998                       # number of WriteReq MSHR miss cycles
system.cpu.dcache.WriteReq_mshr_miss_rate::.cpu.data     0.000108                       # mshr miss rate for WriteReq accesses
system.cpu.dcache.WriteReq_mshr_miss_rate::total     0.000108                       # mshr miss rate for WriteReq accesses
system.cpu.dcache.WriteReq_avg_mshr_miss_latency::.cpu.data 90035.678571                       # average WriteReq mshr miss latency
system.cpu.dcache.WriteReq_avg_mshr_miss_latency::total 90035.678571                       # average WriteReq mshr miss latency
system.cpu.dcache.LoadLockedReq_hits::.cpu.data           13                       # number of LoadLockedReq hits
system.cpu.dcache.LoadLockedReq_hits::total           13                       # number of LoadLockedReq hits
system.cpu.dcache.LoadLockedReq_misses::.cpu.data            1                       # number of LoadLockedReq misses
system.cpu.dcache.LoadLockedReq_misses::total            1                       # number of LoadLockedReq misses
system.cpu.dcache.LoadLockedReq_miss_latency::.cpu.data        71000                       # number of LoadLockedReq miss cycles
system.cpu.dcache.LoadLockedReq_miss_latency::total        71000                       # number of LoadLockedReq miss cycles
system.cpu.dcache.LoadLockedReq_accesses::.cpu.data           14                       # number of LoadLockedReq accesses(hits+misses)
system.cpu.dcache.LoadLockedReq_accesses::total           14                       # number of LoadLockedReq accesses(hits+misses)
system.cpu.dcache.LoadLockedReq_miss_rate::.cpu.data     0.071429                       # miss rate for LoadLockedReq accesses
system.cpu.dcache.LoadLockedReq_miss_rate::total     0.071429                       # miss rate for LoadLockedReq accesses
system.cpu.dcache.LoadLockedReq_avg_miss_latency::.cpu.data        71000                       # average LoadLockedReq miss latency
system.cpu.dcache.LoadLockedReq_avg_miss_latency::total        71000                       # average LoadLockedReq miss latency
system.cpu.dcache.LoadLockedReq_mshr_hits::.cpu.data            1                       # number of LoadLockedReq MSHR hits
system.cpu.dcache.LoadLockedReq_mshr_hits::total            1                       # number of LoadLockedReq MSHR hits
system.cpu.dcache.StoreCondReq_hits::.cpu.data           14                       # number of StoreCondReq hits
system.cpu.dcache.StoreCondReq_hits::total           14                       # number of StoreCondReq hits
system.cpu.dcache.StoreCondReq_accesses::.cpu.data           14                       # number of StoreCondReq accesses(hits+misses)
system.cpu.dcache.StoreCondReq_accesses::total           14                       # number of StoreCondReq accesses(hits+misses)
system.cpu.dcache.power_state.pwrStateResidencyTicks::UNDEFINED   1086342000                       # Cumulative time (in ticks) in various power states
system.cpu.dcache.tags.tagsinuse           163.838813                       # Cycle average of tags in use
system.cpu.dcache.tags.total_refs              822890                       # Total number of references to valid blocks.
system.cpu.dcache.tags.sampled_refs               184                       # Sample count of references to valid blocks.
system.cpu.dcache.tags.avg_refs           4472.228261                       # Average number of references to valid blocks.
system.cpu.dcache.tags.warmup_cycle            161000                       # Cycle when the warmup percentage was hit.
system.cpu.dcache.tags.occ_blocks::.cpu.data   163.838813                       # Average occupied blocks per requestor
system.cpu.dcache.tags.occ_percent::.cpu.data     0.159999                       # Average percentage of cache occupancy
system.cpu.dcache.tags.occ_percent::total     0.159999                       # Average percentage of cache occupancy
system.cpu.dcache.tags.occ_task_id_blocks::1024          181                       # Occupied blocks per task id
system.cpu.dcache.tags.age_task_id_blocks_1024::0           16                       # Occupied blocks per task id
system.cpu.dcache.tags.age_task_id_blocks_1024::3          165                       # Occupied blocks per task id
system.cpu.dcache.tags.occ_task_id_percent::1024     0.176758                       # Percentage of cache occupancy per task id
system.cpu.dcache.tags.tag_accesses           1646956                       # Number of tag accesses
system.cpu.dcache.tags.data_accesses          1646956                       # Number of data accesses
system.cpu.dcache.tags.power_state.pwrStateResidencyTicks::UNDEFINED   1086342000                       # Cumulative time (in ticks) in various power states
system.cpu.power_state.pwrStateResidencyTicks::ON   1086342000                       # Cumulative time (in ticks) in various power states

---------- End Simulation Statistics   ----------
