
---------- Begin Simulation Statistics ----------
final_tick                               923929375000                       # Number of ticks from beginning of simulation (restored from checkpoints and never reset)
host_inst_rate                                  79143                       # Simulator instruction rate (inst/s)
host_mem_usage                                 979436                       # Number of bytes of host memory used
host_op_rate                                    86423                       # Simulator op (including micro ops) rate (op/s)
host_seconds                                 25902.39                       # Real time elapsed on the host
host_tick_rate                               11408965                       # Simulator tick rate (ticks/s)
sim_freq                                 1000000000000                       # Frequency of simulated ticks
sim_insts                                  2050000004                       # Number of instructions simulated
sim_ops                                    2238551046                       # Number of ops (including micro ops) simulated
sim_seconds                                  0.295520                       # Number of seconds simulated
sim_ticks                                295519519000                       # Number of ticks simulated
system.cpu.committedInsts                           0                       # Number of instructions committed
system.cpu.committedOps                             0                       # Number of ops (including micro ops) committed
system.cpu.dtb.accesses                             0                       # DTB accesses
system.cpu.dtb.align_faults                         0                       # Number of TLB faults due to alignment restrictions
system.cpu.dtb.domain_faults                        0                       # Number of TLB faults due to domain restrictions
system.cpu.dtb.flush_entries                        0                       # Number of entries that have been flushed from TLB
system.cpu.dtb.flush_tlb                            0                       # Number of times complete TLB was flushed
system.cpu.dtb.flush_tlb_asid                       0                       # Number of times TLB was flushed by ASID
system.cpu.dtb.flush_tlb_mva                        0                       # Number of times TLB was flushed by MVA
system.cpu.dtb.flush_tlb_mva_asid                   0                       # Number of times TLB was flushed by MVA & ASID
system.cpu.dtb.hits                                 0                       # DTB hits
system.cpu.dtb.inst_accesses                        0                       # ITB inst accesses
system.cpu.dtb.inst_hits                            0                       # ITB inst hits
system.cpu.dtb.inst_misses                          0                       # ITB inst misses
system.cpu.dtb.misses                               0                       # DTB misses
system.cpu.dtb.perms_faults                         0                       # Number of TLB faults due to permissions restrictions
system.cpu.dtb.prefetch_faults                      0                       # Number of TLB faults due to prefetch
system.cpu.dtb.read_accesses                        0                       # DTB read accesses
system.cpu.dtb.read_hits                            0                       # DTB read hits
system.cpu.dtb.read_misses                          0                       # DTB read misses
system.cpu.dtb.stage2_mmu.stage2_tlb.accesses            0                       # DTB accesses
system.cpu.dtb.stage2_mmu.stage2_tlb.align_faults            0                       # Number of TLB faults due to alignment restrictions
system.cpu.dtb.stage2_mmu.stage2_tlb.domain_faults            0                       # Number of TLB faults due to domain restrictions
system.cpu.dtb.stage2_mmu.stage2_tlb.flush_entries            0                       # Number of entries that have been flushed from TLB
system.cpu.dtb.stage2_mmu.stage2_tlb.flush_tlb            0                       # Number of times complete TLB was flushed
system.cpu.dtb.stage2_mmu.stage2_tlb.flush_tlb_asid            0                       # Number of times TLB was flushed by ASID
system.cpu.dtb.stage2_mmu.stage2_tlb.flush_tlb_mva            0                       # Number of times TLB was flushed by MVA
system.cpu.dtb.stage2_mmu.stage2_tlb.flush_tlb_mva_asid            0                       # Number of times TLB was flushed by MVA & ASID
system.cpu.dtb.stage2_mmu.stage2_tlb.hits            0                       # DTB hits
system.cpu.dtb.stage2_mmu.stage2_tlb.inst_accesses            0                       # ITB inst accesses
system.cpu.dtb.stage2_mmu.stage2_tlb.inst_hits            0                       # ITB inst hits
system.cpu.dtb.stage2_mmu.stage2_tlb.inst_misses            0                       # ITB inst misses
system.cpu.dtb.stage2_mmu.stage2_tlb.misses            0                       # DTB misses
system.cpu.dtb.stage2_mmu.stage2_tlb.perms_faults            0                       # Number of TLB faults due to permissions restrictions
system.cpu.dtb.stage2_mmu.stage2_tlb.prefetch_faults            0                       # Number of TLB faults due to prefetch
system.cpu.dtb.stage2_mmu.stage2_tlb.read_accesses            0                       # DTB read accesses
system.cpu.dtb.stage2_mmu.stage2_tlb.read_hits            0                       # DTB read hits
system.cpu.dtb.stage2_mmu.stage2_tlb.read_misses            0                       # DTB read misses
system.cpu.dtb.stage2_mmu.stage2_tlb.walker.walkRequestOrigin_Requested::Data            0                       # Table walker requests started/completed, data/inst
system.cpu.dtb.stage2_mmu.stage2_tlb.walker.walkRequestOrigin_Requested::Inst            0                       # Table walker requests started/completed, data/inst
system.cpu.dtb.stage2_mmu.stage2_tlb.walker.walkRequestOrigin_Requested::total            0                       # Table walker requests started/completed, data/inst
system.cpu.dtb.stage2_mmu.stage2_tlb.walker.walkRequestOrigin_Completed::Data            0                       # Table walker requests started/completed, data/inst
system.cpu.dtb.stage2_mmu.stage2_tlb.walker.walkRequestOrigin_Completed::Inst            0                       # Table walker requests started/completed, data/inst
system.cpu.dtb.stage2_mmu.stage2_tlb.walker.walkRequestOrigin_Completed::total            0                       # Table walker requests started/completed, data/inst
system.cpu.dtb.stage2_mmu.stage2_tlb.walker.walkRequestOrigin::total            0                       # Table walker requests started/completed, data/inst
system.cpu.dtb.stage2_mmu.stage2_tlb.walker.walks            0                       # Table walker walks requested
system.cpu.dtb.stage2_mmu.stage2_tlb.write_accesses            0                       # DTB write accesses
system.cpu.dtb.stage2_mmu.stage2_tlb.write_hits            0                       # DTB write hits
system.cpu.dtb.stage2_mmu.stage2_tlb.write_misses            0                       # DTB write misses
system.cpu.dtb.walker.walkRequestOrigin_Requested::Data            0                       # Table walker requests started/completed, data/inst
system.cpu.dtb.walker.walkRequestOrigin_Requested::Inst            0                       # Table walker requests started/completed, data/inst
system.cpu.dtb.walker.walkRequestOrigin_Requested::total            0                       # Table walker requests started/completed, data/inst
system.cpu.dtb.walker.walkRequestOrigin_Completed::Data            0                       # Table walker requests started/completed, data/inst
system.cpu.dtb.walker.walkRequestOrigin_Completed::Inst            0                       # Table walker requests started/completed, data/inst
system.cpu.dtb.walker.walkRequestOrigin_Completed::total            0                       # Table walker requests started/completed, data/inst
system.cpu.dtb.walker.walkRequestOrigin::total            0                       # Table walker requests started/completed, data/inst
system.cpu.dtb.walker.walks                         0                       # Table walker walks requested
system.cpu.dtb.write_accesses                       0                       # DTB write accesses
system.cpu.dtb.write_hits                           0                       # DTB write hits
system.cpu.dtb.write_misses                         0                       # DTB write misses
system.cpu.idle_fraction                            0                       # Percentage of idle cycles
system.cpu.itb.accesses                             0                       # DTB accesses
system.cpu.itb.align_faults                         0                       # Number of TLB faults due to alignment restrictions
system.cpu.itb.domain_faults                        0                       # Number of TLB faults due to domain restrictions
system.cpu.itb.flush_entries                        0                       # Number of entries that have been flushed from TLB
system.cpu.itb.flush_tlb                            0                       # Number of times complete TLB was flushed
system.cpu.itb.flush_tlb_asid                       0                       # Number of times TLB was flushed by ASID
system.cpu.itb.flush_tlb_mva                        0                       # Number of times TLB was flushed by MVA
system.cpu.itb.flush_tlb_mva_asid                   0                       # Number of times TLB was flushed by MVA & ASID
system.cpu.itb.hits                                 0                       # DTB hits
system.cpu.itb.inst_accesses                        0                       # ITB inst accesses
system.cpu.itb.inst_hits                            0                       # ITB inst hits
system.cpu.itb.inst_misses                          0                       # ITB inst misses
system.cpu.itb.misses                               0                       # DTB misses
system.cpu.itb.perms_faults                         0                       # Number of TLB faults due to permissions restrictions
system.cpu.itb.prefetch_faults                      0                       # Number of TLB faults due to prefetch
system.cpu.itb.read_accesses                        0                       # DTB read accesses
system.cpu.itb.read_hits                            0                       # DTB read hits
system.cpu.itb.read_misses                          0                       # DTB read misses
system.cpu.itb.stage2_mmu.stage2_tlb.accesses            0                       # DTB accesses
system.cpu.itb.stage2_mmu.stage2_tlb.align_faults            0                       # Number of TLB faults due to alignment restrictions
system.cpu.itb.stage2_mmu.stage2_tlb.domain_faults            0                       # Number of TLB faults due to domain restrictions
system.cpu.itb.stage2_mmu.stage2_tlb.flush_entries            0                       # Number of entries that have been flushed from TLB
system.cpu.itb.stage2_mmu.stage2_tlb.flush_tlb            0                       # Number of times complete TLB was flushed
system.cpu.itb.stage2_mmu.stage2_tlb.flush_tlb_asid            0                       # Number of times TLB was flushed by ASID
system.cpu.itb.stage2_mmu.stage2_tlb.flush_tlb_mva            0                       # Number of times TLB was flushed by MVA
system.cpu.itb.stage2_mmu.stage2_tlb.flush_tlb_mva_asid            0                       # Number of times TLB was flushed by MVA & ASID
system.cpu.itb.stage2_mmu.stage2_tlb.hits            0                       # DTB hits
system.cpu.itb.stage2_mmu.stage2_tlb.inst_accesses            0                       # ITB inst accesses
system.cpu.itb.stage2_mmu.stage2_tlb.inst_hits            0                       # ITB inst hits
system.cpu.itb.stage2_mmu.stage2_tlb.inst_misses            0                       # ITB inst misses
system.cpu.itb.stage2_mmu.stage2_tlb.misses            0                       # DTB misses
system.cpu.itb.stage2_mmu.stage2_tlb.perms_faults            0                       # Number of TLB faults due to permissions restrictions
system.cpu.itb.stage2_mmu.stage2_tlb.prefetch_faults            0                       # Number of TLB faults due to prefetch
system.cpu.itb.stage2_mmu.stage2_tlb.read_accesses            0                       # DTB read accesses
system.cpu.itb.stage2_mmu.stage2_tlb.read_hits            0                       # DTB read hits
system.cpu.itb.stage2_mmu.stage2_tlb.read_misses            0                       # DTB read misses
system.cpu.itb.stage2_mmu.stage2_tlb.walker.walkRequestOrigin_Requested::Data            0                       # Table walker requests started/completed, data/inst
system.cpu.itb.stage2_mmu.stage2_tlb.walker.walkRequestOrigin_Requested::Inst            0                       # Table walker requests started/completed, data/inst
system.cpu.itb.stage2_mmu.stage2_tlb.walker.walkRequestOrigin_Requested::total            0                       # Table walker requests started/completed, data/inst
system.cpu.itb.stage2_mmu.stage2_tlb.walker.walkRequestOrigin_Completed::Data            0                       # Table walker requests started/completed, data/inst
system.cpu.itb.stage2_mmu.stage2_tlb.walker.walkRequestOrigin_Completed::Inst            0                       # Table walker requests started/completed, data/inst
system.cpu.itb.stage2_mmu.stage2_tlb.walker.walkRequestOrigin_Completed::total            0                       # Table walker requests started/completed, data/inst
system.cpu.itb.stage2_mmu.stage2_tlb.walker.walkRequestOrigin::total            0                       # Table walker requests started/completed, data/inst
system.cpu.itb.stage2_mmu.stage2_tlb.walker.walks            0                       # Table walker walks requested
system.cpu.itb.stage2_mmu.stage2_tlb.write_accesses            0                       # DTB write accesses
system.cpu.itb.stage2_mmu.stage2_tlb.write_hits            0                       # DTB write hits
system.cpu.itb.stage2_mmu.stage2_tlb.write_misses            0                       # DTB write misses
system.cpu.itb.walker.walkRequestOrigin_Requested::Data            0                       # Table walker requests started/completed, data/inst
system.cpu.itb.walker.walkRequestOrigin_Requested::Inst            0                       # Table walker requests started/completed, data/inst
system.cpu.itb.walker.walkRequestOrigin_Requested::total            0                       # Table walker requests started/completed, data/inst
system.cpu.itb.walker.walkRequestOrigin_Completed::Data            0                       # Table walker requests started/completed, data/inst
system.cpu.itb.walker.walkRequestOrigin_Completed::Inst            0                       # Table walker requests started/completed, data/inst
system.cpu.itb.walker.walkRequestOrigin_Completed::total            0                       # Table walker requests started/completed, data/inst
system.cpu.itb.walker.walkRequestOrigin::total            0                       # Table walker requests started/completed, data/inst
system.cpu.itb.walker.walks                         0                       # Table walker walks requested
system.cpu.itb.write_accesses                       0                       # DTB write accesses
system.cpu.itb.write_hits                           0                       # DTB write hits
system.cpu.itb.write_misses                         0                       # DTB write misses
system.cpu.not_idle_fraction                        1                       # Percentage of non-idle cycles
system.cpu.numCycles                                0                       # number of cpu cycles simulated
system.cpu.numWorkItemsCompleted                    0                       # number of work items this cpu completed
system.cpu.numWorkItemsStarted                      0                       # number of work items this cpu started
system.cpu.num_busy_cycles                          0                       # Number of busy cycles
system.cpu.num_conditional_control_insts            0                       # number of instructions that are conditional controls
system.cpu.num_fp_alu_accesses                      0                       # Number of float alu accesses
system.cpu.num_fp_insts                             0                       # number of float instructions
system.cpu.num_fp_register_reads                    0                       # number of times the floating registers were read
system.cpu.num_fp_register_writes                   0                       # number of times the floating registers were written
system.cpu.num_func_calls                           0                       # number of times a function call or return occured
system.cpu.num_idle_cycles                          0                       # Number of idle cycles
system.cpu.num_int_alu_accesses                     0                       # Number of integer alu accesses
system.cpu.num_int_insts                            0                       # number of integer instructions
system.cpu.num_int_register_reads                   0                       # number of times the integer registers were read
system.cpu.num_int_register_writes                  0                       # number of times the integer registers were written
system.cpu.num_load_insts                           0                       # Number of load instructions
system.cpu.num_mem_refs                             0                       # number of memory refs
system.cpu.num_store_insts                          0                       # Number of store instructions
system.cpu.num_vec_alu_accesses                     0                       # Number of vector alu accesses
system.cpu.num_vec_insts                            0                       # number of vector instructions
system.cpu.num_vec_register_reads                   0                       # number of times the vector registers were read
system.cpu.num_vec_register_writes                  0                       # number of times the vector registers were written
system.cpu.op_class::No_OpClass                     0                       # Class of executed instruction
system.cpu.op_class::IntAlu                         0                       # Class of executed instruction
system.cpu.op_class::IntMult                        0                       # Class of executed instruction
system.cpu.op_class::IntDiv                         0                       # Class of executed instruction
system.cpu.op_class::FloatAdd                       0                       # Class of executed instruction
system.cpu.op_class::FloatCmp                       0                       # Class of executed instruction
system.cpu.op_class::FloatCvt                       0                       # Class of executed instruction
system.cpu.op_class::FloatMult                      0                       # Class of executed instruction
system.cpu.op_class::FloatMultAcc                   0                       # Class of executed instruction
system.cpu.op_class::FloatDiv                       0                       # Class of executed instruction
system.cpu.op_class::FloatMisc                      0                       # Class of executed instruction
system.cpu.op_class::FloatSqrt                      0                       # Class of executed instruction
system.cpu.op_class::SimdAdd                        0                       # Class of executed instruction
system.cpu.op_class::SimdAddAcc                     0                       # Class of executed instruction
system.cpu.op_class::SimdAlu                        0                       # Class of executed instruction
system.cpu.op_class::SimdCmp                        0                       # Class of executed instruction
system.cpu.op_class::SimdCvt                        0                       # Class of executed instruction
system.cpu.op_class::SimdMisc                       0                       # Class of executed instruction
system.cpu.op_class::SimdMult                       0                       # Class of executed instruction
system.cpu.op_class::SimdMultAcc                    0                       # Class of executed instruction
system.cpu.op_class::SimdShift                      0                       # Class of executed instruction
system.cpu.op_class::SimdShiftAcc                   0                       # Class of executed instruction
system.cpu.op_class::SimdDiv                        0                       # Class of executed instruction
system.cpu.op_class::SimdSqrt                       0                       # Class of executed instruction
system.cpu.op_class::SimdFloatAdd                   0                       # Class of executed instruction
system.cpu.op_class::SimdFloatAlu                   0                       # Class of executed instruction
system.cpu.op_class::SimdFloatCmp                   0                       # Class of executed instruction
system.cpu.op_class::SimdFloatCvt                   0                       # Class of executed instruction
system.cpu.op_class::SimdFloatDiv                   0                       # Class of executed instruction
system.cpu.op_class::SimdFloatMisc                  0                       # Class of executed instruction
system.cpu.op_class::SimdFloatMult                  0                       # Class of executed instruction
system.cpu.op_class::SimdFloatMultAcc               0                       # Class of executed instruction
system.cpu.op_class::SimdFloatSqrt                  0                       # Class of executed instruction
system.cpu.op_class::SimdReduceAdd                  0                       # Class of executed instruction
system.cpu.op_class::SimdReduceAlu                  0                       # Class of executed instruction
system.cpu.op_class::SimdReduceCmp                  0                       # Class of executed instruction
system.cpu.op_class::SimdFloatReduceAdd             0                       # Class of executed instruction
system.cpu.op_class::SimdFloatReduceCmp             0                       # Class of executed instruction
system.cpu.op_class::SimdAes                        0                       # Class of executed instruction
system.cpu.op_class::SimdAesMix                     0                       # Class of executed instruction
system.cpu.op_class::SimdSha1Hash                   0                       # Class of executed instruction
system.cpu.op_class::SimdSha1Hash2                  0                       # Class of executed instruction
system.cpu.op_class::SimdSha256Hash                 0                       # Class of executed instruction
system.cpu.op_class::SimdSha256Hash2                0                       # Class of executed instruction
system.cpu.op_class::SimdShaSigma2                  0                       # Class of executed instruction
system.cpu.op_class::SimdShaSigma3                  0                       # Class of executed instruction
system.cpu.op_class::SimdPredAlu                    0                       # Class of executed instruction
system.cpu.op_class::MemRead                        0                       # Class of executed instruction
system.cpu.op_class::MemWrite                       0                       # Class of executed instruction
system.cpu.op_class::FloatMemRead                   0                       # Class of executed instruction
system.cpu.op_class::FloatMemWrite                  0                       # Class of executed instruction
system.cpu.op_class::IprAccess                      0                       # Class of executed instruction
system.cpu.op_class::InstPrefetch                   0                       # Class of executed instruction
system.cpu.op_class::total                          0                       # Class of executed instruction
system.cpu.workload.numSyscalls                   223                       # Number of system calls
system.membus.snoop_filter.hit_multi_requests            0                       # Number of requests hitting in the snoop filter with multiple (>1) holders of the requested data.
system.membus.snoop_filter.hit_multi_snoops            0                       # Number of snoops hitting in the snoop filter with multiple (>1) holders of the requested data.
system.membus.snoop_filter.hit_single_requests       644910                       # Number of requests hitting in the snoop filter with a single holder of the requested data.
system.membus.snoop_filter.hit_single_snoops            0                       # Number of snoops hitting in the snoop filter with a single holder of the requested data.
system.membus.snoop_filter.tot_requests       1289880                       # Total number of requests made to the snoop filter.
system.membus.snoop_filter.tot_snoops               0                       # Total number of snoops made to the snoop filter.
system.switch_cpus.committedInsts                   0                       # Number of instructions committed
system.switch_cpus.committedOps                     0                       # Number of ops (including micro ops) committed
system.switch_cpus.dtb.accesses                     0                       # DTB accesses
system.switch_cpus.dtb.align_faults                 0                       # Number of TLB faults due to alignment restrictions
system.switch_cpus.dtb.domain_faults                0                       # Number of TLB faults due to domain restrictions
system.switch_cpus.dtb.flush_entries                0                       # Number of entries that have been flushed from TLB
system.switch_cpus.dtb.flush_tlb                    0                       # Number of times complete TLB was flushed
system.switch_cpus.dtb.flush_tlb_asid               0                       # Number of times TLB was flushed by ASID
system.switch_cpus.dtb.flush_tlb_mva                0                       # Number of times TLB was flushed by MVA
system.switch_cpus.dtb.flush_tlb_mva_asid            0                       # Number of times TLB was flushed by MVA & ASID
system.switch_cpus.dtb.hits                         0                       # DTB hits
system.switch_cpus.dtb.inst_accesses                0                       # ITB inst accesses
system.switch_cpus.dtb.inst_hits                    0                       # ITB inst hits
system.switch_cpus.dtb.inst_misses                  0                       # ITB inst misses
system.switch_cpus.dtb.misses                       0                       # DTB misses
system.switch_cpus.dtb.perms_faults                 0                       # Number of TLB faults due to permissions restrictions
system.switch_cpus.dtb.prefetch_faults              0                       # Number of TLB faults due to prefetch
system.switch_cpus.dtb.read_accesses                0                       # DTB read accesses
system.switch_cpus.dtb.read_hits                    0                       # DTB read hits
system.switch_cpus.dtb.read_misses                  0                       # DTB read misses
system.switch_cpus.dtb.stage2_mmu.stage2_tlb.accesses            0                       # DTB accesses
system.switch_cpus.dtb.stage2_mmu.stage2_tlb.align_faults            0                       # Number of TLB faults due to alignment restrictions
system.switch_cpus.dtb.stage2_mmu.stage2_tlb.domain_faults            0                       # Number of TLB faults due to domain restrictions
system.switch_cpus.dtb.stage2_mmu.stage2_tlb.flush_entries            0                       # Number of entries that have been flushed from TLB
system.switch_cpus.dtb.stage2_mmu.stage2_tlb.flush_tlb            0                       # Number of times complete TLB was flushed
system.switch_cpus.dtb.stage2_mmu.stage2_tlb.flush_tlb_asid            0                       # Number of times TLB was flushed by ASID
system.switch_cpus.dtb.stage2_mmu.stage2_tlb.flush_tlb_mva            0                       # Number of times TLB was flushed by MVA
system.switch_cpus.dtb.stage2_mmu.stage2_tlb.flush_tlb_mva_asid            0                       # Number of times TLB was flushed by MVA & ASID
system.switch_cpus.dtb.stage2_mmu.stage2_tlb.hits            0                       # DTB hits
system.switch_cpus.dtb.stage2_mmu.stage2_tlb.inst_accesses            0                       # ITB inst accesses
system.switch_cpus.dtb.stage2_mmu.stage2_tlb.inst_hits            0                       # ITB inst hits
system.switch_cpus.dtb.stage2_mmu.stage2_tlb.inst_misses            0                       # ITB inst misses
system.switch_cpus.dtb.stage2_mmu.stage2_tlb.misses            0                       # DTB misses
system.switch_cpus.dtb.stage2_mmu.stage2_tlb.perms_faults            0                       # Number of TLB faults due to permissions restrictions
system.switch_cpus.dtb.stage2_mmu.stage2_tlb.prefetch_faults            0                       # Number of TLB faults due to prefetch
system.switch_cpus.dtb.stage2_mmu.stage2_tlb.read_accesses            0                       # DTB read accesses
system.switch_cpus.dtb.stage2_mmu.stage2_tlb.read_hits            0                       # DTB read hits
system.switch_cpus.dtb.stage2_mmu.stage2_tlb.read_misses            0                       # DTB read misses
system.switch_cpus.dtb.stage2_mmu.stage2_tlb.walker.walkRequestOrigin_Requested::Data            0                       # Table walker requests started/completed, data/inst
system.switch_cpus.dtb.stage2_mmu.stage2_tlb.walker.walkRequestOrigin_Requested::Inst            0                       # Table walker requests started/completed, data/inst
system.switch_cpus.dtb.stage2_mmu.stage2_tlb.walker.walkRequestOrigin_Requested::total            0                       # Table walker requests started/completed, data/inst
system.switch_cpus.dtb.stage2_mmu.stage2_tlb.walker.walkRequestOrigin_Completed::Data            0                       # Table walker requests started/completed, data/inst
system.switch_cpus.dtb.stage2_mmu.stage2_tlb.walker.walkRequestOrigin_Completed::Inst            0                       # Table walker requests started/completed, data/inst
system.switch_cpus.dtb.stage2_mmu.stage2_tlb.walker.walkRequestOrigin_Completed::total            0                       # Table walker requests started/completed, data/inst
system.switch_cpus.dtb.stage2_mmu.stage2_tlb.walker.walkRequestOrigin::total            0                       # Table walker requests started/completed, data/inst
system.switch_cpus.dtb.stage2_mmu.stage2_tlb.walker.walks            0                       # Table walker walks requested
system.switch_cpus.dtb.stage2_mmu.stage2_tlb.write_accesses            0                       # DTB write accesses
system.switch_cpus.dtb.stage2_mmu.stage2_tlb.write_hits            0                       # DTB write hits
system.switch_cpus.dtb.stage2_mmu.stage2_tlb.write_misses            0                       # DTB write misses
system.switch_cpus.dtb.walker.walkRequestOrigin_Requested::Data            0                       # Table walker requests started/completed, data/inst
system.switch_cpus.dtb.walker.walkRequestOrigin_Requested::Inst            0                       # Table walker requests started/completed, data/inst
system.switch_cpus.dtb.walker.walkRequestOrigin_Requested::total            0                       # Table walker requests started/completed, data/inst
system.switch_cpus.dtb.walker.walkRequestOrigin_Completed::Data            0                       # Table walker requests started/completed, data/inst
system.switch_cpus.dtb.walker.walkRequestOrigin_Completed::Inst            0                       # Table walker requests started/completed, data/inst
system.switch_cpus.dtb.walker.walkRequestOrigin_Completed::total            0                       # Table walker requests started/completed, data/inst
system.switch_cpus.dtb.walker.walkRequestOrigin::total            0                       # Table walker requests started/completed, data/inst
system.switch_cpus.dtb.walker.walks                 0                       # Table walker walks requested
system.switch_cpus.dtb.write_accesses               0                       # DTB write accesses
system.switch_cpus.dtb.write_hits                   0                       # DTB write hits
system.switch_cpus.dtb.write_misses                 0                       # DTB write misses
system.switch_cpus.idle_fraction                    0                       # Percentage of idle cycles
system.switch_cpus.itb.accesses                     0                       # DTB accesses
system.switch_cpus.itb.align_faults                 0                       # Number of TLB faults due to alignment restrictions
system.switch_cpus.itb.domain_faults                0                       # Number of TLB faults due to domain restrictions
system.switch_cpus.itb.flush_entries                0                       # Number of entries that have been flushed from TLB
system.switch_cpus.itb.flush_tlb                    0                       # Number of times complete TLB was flushed
system.switch_cpus.itb.flush_tlb_asid               0                       # Number of times TLB was flushed by ASID
system.switch_cpus.itb.flush_tlb_mva                0                       # Number of times TLB was flushed by MVA
system.switch_cpus.itb.flush_tlb_mva_asid            0                       # Number of times TLB was flushed by MVA & ASID
system.switch_cpus.itb.hits                         0                       # DTB hits
system.switch_cpus.itb.inst_accesses                0                       # ITB inst accesses
system.switch_cpus.itb.inst_hits                    0                       # ITB inst hits
system.switch_cpus.itb.inst_misses                  0                       # ITB inst misses
system.switch_cpus.itb.misses                       0                       # DTB misses
system.switch_cpus.itb.perms_faults                 0                       # Number of TLB faults due to permissions restrictions
system.switch_cpus.itb.prefetch_faults              0                       # Number of TLB faults due to prefetch
system.switch_cpus.itb.read_accesses                0                       # DTB read accesses
system.switch_cpus.itb.read_hits                    0                       # DTB read hits
system.switch_cpus.itb.read_misses                  0                       # DTB read misses
system.switch_cpus.itb.stage2_mmu.stage2_tlb.accesses            0                       # DTB accesses
system.switch_cpus.itb.stage2_mmu.stage2_tlb.align_faults            0                       # Number of TLB faults due to alignment restrictions
system.switch_cpus.itb.stage2_mmu.stage2_tlb.domain_faults            0                       # Number of TLB faults due to domain restrictions
system.switch_cpus.itb.stage2_mmu.stage2_tlb.flush_entries            0                       # Number of entries that have been flushed from TLB
system.switch_cpus.itb.stage2_mmu.stage2_tlb.flush_tlb            0                       # Number of times complete TLB was flushed
system.switch_cpus.itb.stage2_mmu.stage2_tlb.flush_tlb_asid            0                       # Number of times TLB was flushed by ASID
system.switch_cpus.itb.stage2_mmu.stage2_tlb.flush_tlb_mva            0                       # Number of times TLB was flushed by MVA
system.switch_cpus.itb.stage2_mmu.stage2_tlb.flush_tlb_mva_asid            0                       # Number of times TLB was flushed by MVA & ASID
system.switch_cpus.itb.stage2_mmu.stage2_tlb.hits            0                       # DTB hits
system.switch_cpus.itb.stage2_mmu.stage2_tlb.inst_accesses            0                       # ITB inst accesses
system.switch_cpus.itb.stage2_mmu.stage2_tlb.inst_hits            0                       # ITB inst hits
system.switch_cpus.itb.stage2_mmu.stage2_tlb.inst_misses            0                       # ITB inst misses
system.switch_cpus.itb.stage2_mmu.stage2_tlb.misses            0                       # DTB misses
system.switch_cpus.itb.stage2_mmu.stage2_tlb.perms_faults            0                       # Number of TLB faults due to permissions restrictions
system.switch_cpus.itb.stage2_mmu.stage2_tlb.prefetch_faults            0                       # Number of TLB faults due to prefetch
system.switch_cpus.itb.stage2_mmu.stage2_tlb.read_accesses            0                       # DTB read accesses
system.switch_cpus.itb.stage2_mmu.stage2_tlb.read_hits            0                       # DTB read hits
system.switch_cpus.itb.stage2_mmu.stage2_tlb.read_misses            0                       # DTB read misses
system.switch_cpus.itb.stage2_mmu.stage2_tlb.walker.walkRequestOrigin_Requested::Data            0                       # Table walker requests started/completed, data/inst
system.switch_cpus.itb.stage2_mmu.stage2_tlb.walker.walkRequestOrigin_Requested::Inst            0                       # Table walker requests started/completed, data/inst
system.switch_cpus.itb.stage2_mmu.stage2_tlb.walker.walkRequestOrigin_Requested::total            0                       # Table walker requests started/completed, data/inst
system.switch_cpus.itb.stage2_mmu.stage2_tlb.walker.walkRequestOrigin_Completed::Data            0                       # Table walker requests started/completed, data/inst
system.switch_cpus.itb.stage2_mmu.stage2_tlb.walker.walkRequestOrigin_Completed::Inst            0                       # Table walker requests started/completed, data/inst
system.switch_cpus.itb.stage2_mmu.stage2_tlb.walker.walkRequestOrigin_Completed::total            0                       # Table walker requests started/completed, data/inst
system.switch_cpus.itb.stage2_mmu.stage2_tlb.walker.walkRequestOrigin::total            0                       # Table walker requests started/completed, data/inst
system.switch_cpus.itb.stage2_mmu.stage2_tlb.walker.walks            0                       # Table walker walks requested
system.switch_cpus.itb.stage2_mmu.stage2_tlb.write_accesses            0                       # DTB write accesses
system.switch_cpus.itb.stage2_mmu.stage2_tlb.write_hits            0                       # DTB write hits
system.switch_cpus.itb.stage2_mmu.stage2_tlb.write_misses            0                       # DTB write misses
system.switch_cpus.itb.walker.walkRequestOrigin_Requested::Data            0                       # Table walker requests started/completed, data/inst
system.switch_cpus.itb.walker.walkRequestOrigin_Requested::Inst            0                       # Table walker requests started/completed, data/inst
system.switch_cpus.itb.walker.walkRequestOrigin_Requested::total            0                       # Table walker requests started/completed, data/inst
system.switch_cpus.itb.walker.walkRequestOrigin_Completed::Data            0                       # Table walker requests started/completed, data/inst
system.switch_cpus.itb.walker.walkRequestOrigin_Completed::Inst            0                       # Table walker requests started/completed, data/inst
system.switch_cpus.itb.walker.walkRequestOrigin_Completed::total            0                       # Table walker requests started/completed, data/inst
system.switch_cpus.itb.walker.walkRequestOrigin::total            0                       # Table walker requests started/completed, data/inst
system.switch_cpus.itb.walker.walks                 0                       # Table walker walks requested
system.switch_cpus.itb.write_accesses               0                       # DTB write accesses
system.switch_cpus.itb.write_hits                   0                       # DTB write hits
system.switch_cpus.itb.write_misses                 0                       # DTB write misses
system.switch_cpus.not_idle_fraction                1                       # Percentage of non-idle cycles
system.switch_cpus.numCycles                        0                       # number of cpu cycles simulated
system.switch_cpus.numWorkItemsCompleted            0                       # number of work items this cpu completed
system.switch_cpus.numWorkItemsStarted              0                       # number of work items this cpu started
system.switch_cpus.num_busy_cycles                  0                       # Number of busy cycles
system.switch_cpus.num_conditional_control_insts            0                       # number of instructions that are conditional controls
system.switch_cpus.num_fp_alu_accesses              0                       # Number of float alu accesses
system.switch_cpus.num_fp_insts                     0                       # number of float instructions
system.switch_cpus.num_fp_register_reads            0                       # number of times the floating registers were read
system.switch_cpus.num_fp_register_writes            0                       # number of times the floating registers were written
system.switch_cpus.num_func_calls                   0                       # number of times a function call or return occured
system.switch_cpus.num_idle_cycles                  0                       # Number of idle cycles
system.switch_cpus.num_int_alu_accesses             0                       # Number of integer alu accesses
system.switch_cpus.num_int_insts                    0                       # number of integer instructions
system.switch_cpus.num_int_register_reads            0                       # number of times the integer registers were read
system.switch_cpus.num_int_register_writes            0                       # number of times the integer registers were written
system.switch_cpus.num_load_insts                   0                       # Number of load instructions
system.switch_cpus.num_mem_refs                     0                       # number of memory refs
system.switch_cpus.num_store_insts                  0                       # Number of store instructions
system.switch_cpus.num_vec_alu_accesses             0                       # Number of vector alu accesses
system.switch_cpus.num_vec_insts                    0                       # number of vector instructions
system.switch_cpus.num_vec_register_reads            0                       # number of times the vector registers were read
system.switch_cpus.num_vec_register_writes            0                       # number of times the vector registers were written
system.switch_cpus.op_class::No_OpClass             0                       # Class of executed instruction
system.switch_cpus.op_class::IntAlu                 0                       # Class of executed instruction
system.switch_cpus.op_class::IntMult                0                       # Class of executed instruction
system.switch_cpus.op_class::IntDiv                 0                       # Class of executed instruction
system.switch_cpus.op_class::FloatAdd               0                       # Class of executed instruction
system.switch_cpus.op_class::FloatCmp               0                       # Class of executed instruction
system.switch_cpus.op_class::FloatCvt               0                       # Class of executed instruction
system.switch_cpus.op_class::FloatMult              0                       # Class of executed instruction
system.switch_cpus.op_class::FloatMultAcc            0                       # Class of executed instruction
system.switch_cpus.op_class::FloatDiv               0                       # Class of executed instruction
system.switch_cpus.op_class::FloatMisc              0                       # Class of executed instruction
system.switch_cpus.op_class::FloatSqrt              0                       # Class of executed instruction
system.switch_cpus.op_class::SimdAdd                0                       # Class of executed instruction
system.switch_cpus.op_class::SimdAddAcc             0                       # Class of executed instruction
system.switch_cpus.op_class::SimdAlu                0                       # Class of executed instruction
system.switch_cpus.op_class::SimdCmp                0                       # Class of executed instruction
system.switch_cpus.op_class::SimdCvt                0                       # Class of executed instruction
system.switch_cpus.op_class::SimdMisc               0                       # Class of executed instruction
system.switch_cpus.op_class::SimdMult               0                       # Class of executed instruction
system.switch_cpus.op_class::SimdMultAcc            0                       # Class of executed instruction
system.switch_cpus.op_class::SimdShift              0                       # Class of executed instruction
system.switch_cpus.op_class::SimdShiftAcc            0                       # Class of executed instruction
system.switch_cpus.op_class::SimdDiv                0                       # Class of executed instruction
system.switch_cpus.op_class::SimdSqrt               0                       # Class of executed instruction
system.switch_cpus.op_class::SimdFloatAdd            0                       # Class of executed instruction
system.switch_cpus.op_class::SimdFloatAlu            0                       # Class of executed instruction
system.switch_cpus.op_class::SimdFloatCmp            0                       # Class of executed instruction
system.switch_cpus.op_class::SimdFloatCvt            0                       # Class of executed instruction
system.switch_cpus.op_class::SimdFloatDiv            0                       # Class of executed instruction
system.switch_cpus.op_class::SimdFloatMisc            0                       # Class of executed instruction
system.switch_cpus.op_class::SimdFloatMult            0                       # Class of executed instruction
system.switch_cpus.op_class::SimdFloatMultAcc            0                       # Class of executed instruction
system.switch_cpus.op_class::SimdFloatSqrt            0                       # Class of executed instruction
system.switch_cpus.op_class::SimdReduceAdd            0                       # Class of executed instruction
system.switch_cpus.op_class::SimdReduceAlu            0                       # Class of executed instruction
system.switch_cpus.op_class::SimdReduceCmp            0                       # Class of executed instruction
system.switch_cpus.op_class::SimdFloatReduceAdd            0                       # Class of executed instruction
system.switch_cpus.op_class::SimdFloatReduceCmp            0                       # Class of executed instruction
system.switch_cpus.op_class::SimdAes                0                       # Class of executed instruction
system.switch_cpus.op_class::SimdAesMix             0                       # Class of executed instruction
system.switch_cpus.op_class::SimdSha1Hash            0                       # Class of executed instruction
system.switch_cpus.op_class::SimdSha1Hash2            0                       # Class of executed instruction
system.switch_cpus.op_class::SimdSha256Hash            0                       # Class of executed instruction
system.switch_cpus.op_class::SimdSha256Hash2            0                       # Class of executed instruction
system.switch_cpus.op_class::SimdShaSigma2            0                       # Class of executed instruction
system.switch_cpus.op_class::SimdShaSigma3            0                       # Class of executed instruction
system.switch_cpus.op_class::SimdPredAlu            0                       # Class of executed instruction
system.switch_cpus.op_class::MemRead                0                       # Class of executed instruction
system.switch_cpus.op_class::MemWrite               0                       # Class of executed instruction
system.switch_cpus.op_class::FloatMemRead            0                       # Class of executed instruction
system.switch_cpus.op_class::FloatMemWrite            0                       # Class of executed instruction
system.switch_cpus.op_class::IprAccess              0                       # Class of executed instruction
system.switch_cpus.op_class::InstPrefetch            0                       # Class of executed instruction
system.switch_cpus.op_class::total                  0                       # Class of executed instruction
system.switch_cpus_1.branchPred.BTBCorrect            0                       # Number of correct BTB predictions (this stat may not work properly.
system.switch_cpus_1.branchPred.BTBHitPct    99.676058                       # BTB Hit Percentage
system.switch_cpus_1.branchPred.BTBHits      63789967                       # Number of BTB hits
system.switch_cpus_1.branchPred.BTBLookups     63997281                       # Number of BTB lookups
system.switch_cpus_1.branchPred.RASInCorrect           15                       # Number of incorrect RAS predictions.
system.switch_cpus_1.branchPred.condIncorrect      2911612                       # Number of conditional branches incorrect
system.switch_cpus_1.branchPred.condPredicted    108413175                       # Number of conditional branches predicted
system.switch_cpus_1.branchPred.indirectHits       683528                       # Number of indirect target hits.
system.switch_cpus_1.branchPred.indirectLookups       685786                       # Number of indirect predictor lookups.
system.switch_cpus_1.branchPred.indirectMisses         2258                       # Number of indirect misses.
system.switch_cpus_1.branchPred.lookups     120346452                       # Number of BP lookups
system.switch_cpus_1.branchPred.loop_predictor.loopPredictorCorrect     45820822                       # Number of times the loop predictor is the provider and the prediction is correct
system.switch_cpus_1.branchPred.loop_predictor.loopPredictorWrong     30120913                       # Number of times the loop predictor is the provider and the prediction is wrong
system.switch_cpus_1.branchPred.statistical_corrector.scPredictorCorrect     37516700                       # Number of time the SC predictor is the provider and the prediction is correct
system.switch_cpus_1.branchPred.statistical_corrector.scPredictorWrong     38425035                       # Number of time the SC predictor is the provider and the prediction is wrong
system.switch_cpus_1.branchPred.tage.bimodalAltMatchProviderCorrect        14484                       # Number of times TAGE Alt Match is the bimodal and it is the provider and the prediction is correct
system.switch_cpus_1.branchPred.tage.bimodalAltMatchProviderWrong         3406                       # Number of times TAGE Alt Match is the bimodal and it is the provider and the prediction is wrong
system.switch_cpus_1.branchPred.tage.tageAltMatchProvider::0      8014185                       # TAGE provider for alt match
system.switch_cpus_1.branchPred.tage.tageAltMatchProvider::1            0                       # TAGE provider for alt match
system.switch_cpus_1.branchPred.tage.tageAltMatchProvider::2      1693611                       # TAGE provider for alt match
system.switch_cpus_1.branchPred.tage.tageAltMatchProvider::3            0                       # TAGE provider for alt match
system.switch_cpus_1.branchPred.tage.tageAltMatchProvider::4       996221                       # TAGE provider for alt match
system.switch_cpus_1.branchPred.tage.tageAltMatchProvider::5            0                       # TAGE provider for alt match
system.switch_cpus_1.branchPred.tage.tageAltMatchProvider::6      1228179                       # TAGE provider for alt match
system.switch_cpus_1.branchPred.tage.tageAltMatchProvider::7      3082293                       # TAGE provider for alt match
system.switch_cpus_1.branchPred.tage.tageAltMatchProvider::8      1988139                       # TAGE provider for alt match
system.switch_cpus_1.branchPred.tage.tageAltMatchProvider::9      2112726                       # TAGE provider for alt match
system.switch_cpus_1.branchPred.tage.tageAltMatchProvider::10      3735566                       # TAGE provider for alt match
system.switch_cpus_1.branchPred.tage.tageAltMatchProvider::11      1039224                       # TAGE provider for alt match
system.switch_cpus_1.branchPred.tage.tageAltMatchProvider::12      1030084                       # TAGE provider for alt match
system.switch_cpus_1.branchPred.tage.tageAltMatchProvider::13      1301308                       # TAGE provider for alt match
system.switch_cpus_1.branchPred.tage.tageAltMatchProvider::14       951301                       # TAGE provider for alt match
system.switch_cpus_1.branchPred.tage.tageAltMatchProvider::15      1367884                       # TAGE provider for alt match
system.switch_cpus_1.branchPred.tage.tageAltMatchProvider::16       933782                       # TAGE provider for alt match
system.switch_cpus_1.branchPred.tage.tageAltMatchProvider::17       795019                       # TAGE provider for alt match
system.switch_cpus_1.branchPred.tage.tageAltMatchProvider::18      1262380                       # TAGE provider for alt match
system.switch_cpus_1.branchPred.tage.tageAltMatchProvider::19       382005                       # TAGE provider for alt match
system.switch_cpus_1.branchPred.tage.tageAltMatchProvider::20       541235                       # TAGE provider for alt match
system.switch_cpus_1.branchPred.tage.tageAltMatchProvider::21            0                       # TAGE provider for alt match
system.switch_cpus_1.branchPred.tage.tageAltMatchProvider::22       454110                       # TAGE provider for alt match
system.switch_cpus_1.branchPred.tage.tageAltMatchProvider::23            0                       # TAGE provider for alt match
system.switch_cpus_1.branchPred.tage.tageAltMatchProvider::24       279917                       # TAGE provider for alt match
system.switch_cpus_1.branchPred.tage.tageAltMatchProvider::25            0                       # TAGE provider for alt match
system.switch_cpus_1.branchPred.tage.tageAltMatchProvider::26       637390                       # TAGE provider for alt match
system.switch_cpus_1.branchPred.tage.tageAltMatchProvider::27            0                       # TAGE provider for alt match
system.switch_cpus_1.branchPred.tage.tageAltMatchProvider::28       220130                       # TAGE provider for alt match
system.switch_cpus_1.branchPred.tage.tageAltMatchProvider::29            0                       # TAGE provider for alt match
system.switch_cpus_1.branchPred.tage.tageAltMatchProvider::30            0                       # TAGE provider for alt match
system.switch_cpus_1.branchPred.tage.tageAltMatchProviderCorrect       809374                       # Number of times TAGE Alt Match is the provider and the prediction is correct
system.switch_cpus_1.branchPred.tage.tageAltMatchProviderWouldHaveHit       304056                       # Number of times TAGE Longest Match is the provider, the prediction is wrong and Alt Match prediction was correct
system.switch_cpus_1.branchPred.tage.tageAltMatchProviderWrong       380987                       # Number of times TAGE Alt Match is the provider and the prediction is wrong
system.switch_cpus_1.branchPred.tage.tageBimodalProviderCorrect     40145561                       # Number of times there are no hits on the TAGE tables and the bimodal prediction is correct
system.switch_cpus_1.branchPred.tage.tageBimodalProviderWrong         5544                       # Number of times there are no hits on the TAGE tables and the bimodal prediction is wrong
system.switch_cpus_1.branchPred.tage.tageLongestMatchProvider::0            0                       # TAGE provider for longest match
system.switch_cpus_1.branchPred.tage.tageLongestMatchProvider::1            0                       # TAGE provider for longest match
system.switch_cpus_1.branchPred.tage.tageLongestMatchProvider::2       658609                       # TAGE provider for longest match
system.switch_cpus_1.branchPred.tage.tageLongestMatchProvider::3            0                       # TAGE provider for longest match
system.switch_cpus_1.branchPred.tage.tageLongestMatchProvider::4      1704713                       # TAGE provider for longest match
system.switch_cpus_1.branchPred.tage.tageLongestMatchProvider::5            0                       # TAGE provider for longest match
system.switch_cpus_1.branchPred.tage.tageLongestMatchProvider::6       820669                       # TAGE provider for longest match
system.switch_cpus_1.branchPred.tage.tageLongestMatchProvider::7      1632142                       # TAGE provider for longest match
system.switch_cpus_1.branchPred.tage.tageLongestMatchProvider::8      1109759                       # TAGE provider for longest match
system.switch_cpus_1.branchPred.tage.tageLongestMatchProvider::9      3063503                       # TAGE provider for longest match
system.switch_cpus_1.branchPred.tage.tageLongestMatchProvider::10      6227575                       # TAGE provider for longest match
system.switch_cpus_1.branchPred.tage.tageLongestMatchProvider::11       970302                       # TAGE provider for longest match
system.switch_cpus_1.branchPred.tage.tageLongestMatchProvider::12       939385                       # TAGE provider for longest match
system.switch_cpus_1.branchPred.tage.tageLongestMatchProvider::13      1733204                       # TAGE provider for longest match
system.switch_cpus_1.branchPred.tage.tageLongestMatchProvider::14      1495187                       # TAGE provider for longest match
system.switch_cpus_1.branchPred.tage.tageLongestMatchProvider::15      1709386                       # TAGE provider for longest match
system.switch_cpus_1.branchPred.tage.tageLongestMatchProvider::16      1344432                       # TAGE provider for longest match
system.switch_cpus_1.branchPred.tage.tageLongestMatchProvider::17      1421490                       # TAGE provider for longest match
system.switch_cpus_1.branchPred.tage.tageLongestMatchProvider::18      1481322                       # TAGE provider for longest match
system.switch_cpus_1.branchPred.tage.tageLongestMatchProvider::19      1587192                       # TAGE provider for longest match
system.switch_cpus_1.branchPred.tage.tageLongestMatchProvider::20      2233288                       # TAGE provider for longest match
system.switch_cpus_1.branchPred.tage.tageLongestMatchProvider::21            0                       # TAGE provider for longest match
system.switch_cpus_1.branchPred.tage.tageLongestMatchProvider::22      1424428                       # TAGE provider for longest match
system.switch_cpus_1.branchPred.tage.tageLongestMatchProvider::23            0                       # TAGE provider for longest match
system.switch_cpus_1.branchPred.tage.tageLongestMatchProvider::24       778404                       # TAGE provider for longest match
system.switch_cpus_1.branchPred.tage.tageLongestMatchProvider::25            0                       # TAGE provider for longest match
system.switch_cpus_1.branchPred.tage.tageLongestMatchProvider::26       445524                       # TAGE provider for longest match
system.switch_cpus_1.branchPred.tage.tageLongestMatchProvider::27            0                       # TAGE provider for longest match
system.switch_cpus_1.branchPred.tage.tageLongestMatchProvider::28       466217                       # TAGE provider for longest match
system.switch_cpus_1.branchPred.tage.tageLongestMatchProvider::29            0                       # TAGE provider for longest match
system.switch_cpus_1.branchPred.tage.tageLongestMatchProvider::30       799958                       # TAGE provider for longest match
system.switch_cpus_1.branchPred.tage.tageLongestMatchProviderCorrect     31460321                       # Number of times TAGE Longest Match is the provider and the prediction is correct
system.switch_cpus_1.branchPred.tage.tageLongestMatchProviderWouldHaveHit       256957                       # Number of times TAGE Alt Match is the provider, the prediction is wrong and Longest Match prediction was correct
system.switch_cpus_1.branchPred.tage.tageLongestMatchProviderWrong      1396007                       # Number of times TAGE Longest Match is the provider and the prediction is wrong
system.switch_cpus_1.branchPred.usedRAS       2308662                       # Number of times the RAS was used to get a target.
system.switch_cpus_1.branchPredindirectMispredicted        62450                       # Number of mispredicted indirect branches.
system.switch_cpus_1.cc_regfile_reads       262501035                       # number of cc regfile reads
system.switch_cpus_1.cc_regfile_writes      277810553                       # number of cc regfile writes
system.switch_cpus_1.commit.amos                    0                       # Number of atomic instructions committed
system.switch_cpus_1.commit.branchMispredicts      2910981                       # The number of times a branch was mispredicted
system.switch_cpus_1.commit.branches         86818407                       # Number of branches committed
system.switch_cpus_1.commit.bw_lim_events     62309075                       # number cycles where commit BW limit reached
system.switch_cpus_1.commit.commitNonSpecStalls        58360                       # The number of times commit has been forced to stall to communicate backwards
system.switch_cpus_1.commit.commitSquashedInsts    202936713                       # The number of squashed insts skipped by commit
system.switch_cpus_1.commit.committedInsts   1000415624                       # Number of instructions committed
system.switch_cpus_1.commit.committedOps   1062485579                       # Number of ops (including micro ops) committed
system.switch_cpus_1.commit.committed_per_cycle::samples    563808932                       # Number of insts commited each cycle
system.switch_cpus_1.commit.committed_per_cycle::mean     1.884478                       # Number of insts commited each cycle
system.switch_cpus_1.commit.committed_per_cycle::stdev     2.722152                       # Number of insts commited each cycle
system.switch_cpus_1.commit.committed_per_cycle::underflows            0      0.00%      0.00% # Number of insts commited each cycle
system.switch_cpus_1.commit.committed_per_cycle::0    285447013     50.63%     50.63% # Number of insts commited each cycle
system.switch_cpus_1.commit.committed_per_cycle::1     80848539     14.34%     64.97% # Number of insts commited each cycle
system.switch_cpus_1.commit.committed_per_cycle::2     44967516      7.98%     72.94% # Number of insts commited each cycle
system.switch_cpus_1.commit.committed_per_cycle::3     41098714      7.29%     80.23% # Number of insts commited each cycle
system.switch_cpus_1.commit.committed_per_cycle::4     17437764      3.09%     83.33% # Number of insts commited each cycle
system.switch_cpus_1.commit.committed_per_cycle::5      5884349      1.04%     84.37% # Number of insts commited each cycle
system.switch_cpus_1.commit.committed_per_cycle::6      9951269      1.77%     86.13% # Number of insts commited each cycle
system.switch_cpus_1.commit.committed_per_cycle::7     15864693      2.81%     88.95% # Number of insts commited each cycle
system.switch_cpus_1.commit.committed_per_cycle::8     62309075     11.05%    100.00% # Number of insts commited each cycle
system.switch_cpus_1.commit.committed_per_cycle::overflows            0      0.00%    100.00% # Number of insts commited each cycle
system.switch_cpus_1.commit.committed_per_cycle::min_value            0                       # Number of insts commited each cycle
system.switch_cpus_1.commit.committed_per_cycle::max_value            8                       # Number of insts commited each cycle
system.switch_cpus_1.commit.committed_per_cycle::total    563808932                       # Number of insts commited each cycle
system.switch_cpus_1.commit.fp_insts                0                       # Number of committed floating point instructions.
system.switch_cpus_1.commit.function_calls      2111824                       # Number of function calls committed.
system.switch_cpus_1.commit.int_insts       655073549                       # Number of committed integer instructions.
system.switch_cpus_1.commit.loads           203132492                       # Number of loads committed
system.switch_cpus_1.commit.membars             58137                       # Number of memory barriers committed
system.switch_cpus_1.commit.op_class_0::No_OpClass          121      0.00%      0.00% # Class of committed instruction
system.switch_cpus_1.commit.op_class_0::IntAlu    430618853     40.53%     40.53% # Class of committed instruction
system.switch_cpus_1.commit.op_class_0::IntMult      6175069      0.58%     41.11% # Class of committed instruction
system.switch_cpus_1.commit.op_class_0::IntDiv       216127      0.02%     41.13% # Class of committed instruction
system.switch_cpus_1.commit.op_class_0::FloatAdd     94402483      8.89%     50.02% # Class of committed instruction
system.switch_cpus_1.commit.op_class_0::FloatCmp     13366263      1.26%     51.27% # Class of committed instruction
system.switch_cpus_1.commit.op_class_0::FloatCvt     14876998      1.40%     52.67% # Class of committed instruction
system.switch_cpus_1.commit.op_class_0::FloatMult     92459222      8.70%     61.38% # Class of committed instruction
system.switch_cpus_1.commit.op_class_0::FloatMultAcc    125418982     11.80%     73.18% # Class of committed instruction
system.switch_cpus_1.commit.op_class_0::FloatDiv            0      0.00%     73.18% # Class of committed instruction
system.switch_cpus_1.commit.op_class_0::FloatMisc     10244645      0.96%     74.14% # Class of committed instruction
system.switch_cpus_1.commit.op_class_0::FloatSqrt            0      0.00%     74.14% # Class of committed instruction
system.switch_cpus_1.commit.op_class_0::SimdAdd          270      0.00%     74.14% # Class of committed instruction
system.switch_cpus_1.commit.op_class_0::SimdAddAcc            0      0.00%     74.14% # Class of committed instruction
system.switch_cpus_1.commit.op_class_0::SimdAlu          291      0.00%     74.14% # Class of committed instruction
system.switch_cpus_1.commit.op_class_0::SimdCmp          262      0.00%     74.14% # Class of committed instruction
system.switch_cpus_1.commit.op_class_0::SimdCvt            0      0.00%     74.14% # Class of committed instruction
system.switch_cpus_1.commit.op_class_0::SimdMisc          440      0.00%     74.15% # Class of committed instruction
system.switch_cpus_1.commit.op_class_0::SimdMult            0      0.00%     74.15% # Class of committed instruction
system.switch_cpus_1.commit.op_class_0::SimdMultAcc            0      0.00%     74.15% # Class of committed instruction
system.switch_cpus_1.commit.op_class_0::SimdShift            0      0.00%     74.15% # Class of committed instruction
system.switch_cpus_1.commit.op_class_0::SimdShiftAcc            0      0.00%     74.15% # Class of committed instruction
system.switch_cpus_1.commit.op_class_0::SimdDiv            0      0.00%     74.15% # Class of committed instruction
system.switch_cpus_1.commit.op_class_0::SimdSqrt            0      0.00%     74.15% # Class of committed instruction
system.switch_cpus_1.commit.op_class_0::SimdFloatAdd            0      0.00%     74.15% # Class of committed instruction
system.switch_cpus_1.commit.op_class_0::SimdFloatAlu            0      0.00%     74.15% # Class of committed instruction
system.switch_cpus_1.commit.op_class_0::SimdFloatCmp            0      0.00%     74.15% # Class of committed instruction
system.switch_cpus_1.commit.op_class_0::SimdFloatCvt            0      0.00%     74.15% # Class of committed instruction
system.switch_cpus_1.commit.op_class_0::SimdFloatDiv            0      0.00%     74.15% # Class of committed instruction
system.switch_cpus_1.commit.op_class_0::SimdFloatMisc            0      0.00%     74.15% # Class of committed instruction
system.switch_cpus_1.commit.op_class_0::SimdFloatMult            0      0.00%     74.15% # Class of committed instruction
system.switch_cpus_1.commit.op_class_0::SimdFloatMultAcc            0      0.00%     74.15% # Class of committed instruction
system.switch_cpus_1.commit.op_class_0::SimdFloatSqrt            0      0.00%     74.15% # Class of committed instruction
system.switch_cpus_1.commit.op_class_0::SimdReduceAdd            0      0.00%     74.15% # Class of committed instruction
system.switch_cpus_1.commit.op_class_0::SimdReduceAlu            0      0.00%     74.15% # Class of committed instruction
system.switch_cpus_1.commit.op_class_0::SimdReduceCmp            0      0.00%     74.15% # Class of committed instruction
system.switch_cpus_1.commit.op_class_0::SimdFloatReduceAdd            0      0.00%     74.15% # Class of committed instruction
system.switch_cpus_1.commit.op_class_0::SimdFloatReduceCmp            0      0.00%     74.15% # Class of committed instruction
system.switch_cpus_1.commit.op_class_0::SimdAes            0      0.00%     74.15% # Class of committed instruction
system.switch_cpus_1.commit.op_class_0::SimdAesMix            0      0.00%     74.15% # Class of committed instruction
system.switch_cpus_1.commit.op_class_0::SimdSha1Hash            0      0.00%     74.15% # Class of committed instruction
system.switch_cpus_1.commit.op_class_0::SimdSha1Hash2            0      0.00%     74.15% # Class of committed instruction
system.switch_cpus_1.commit.op_class_0::SimdSha256Hash            0      0.00%     74.15% # Class of committed instruction
system.switch_cpus_1.commit.op_class_0::SimdSha256Hash2            0      0.00%     74.15% # Class of committed instruction
system.switch_cpus_1.commit.op_class_0::SimdShaSigma2            0      0.00%     74.15% # Class of committed instruction
system.switch_cpus_1.commit.op_class_0::SimdShaSigma3            0      0.00%     74.15% # Class of committed instruction
system.switch_cpus_1.commit.op_class_0::SimdPredAlu            0      0.00%     74.15% # Class of committed instruction
system.switch_cpus_1.commit.op_class_0::MemRead    203132492     19.12%     93.26% # Class of committed instruction
system.switch_cpus_1.commit.op_class_0::MemWrite     71573061      6.74%    100.00% # Class of committed instruction
system.switch_cpus_1.commit.op_class_0::FloatMemRead            0      0.00%    100.00% # Class of committed instruction
system.switch_cpus_1.commit.op_class_0::FloatMemWrite            0      0.00%    100.00% # Class of committed instruction
system.switch_cpus_1.commit.op_class_0::IprAccess            0      0.00%    100.00% # Class of committed instruction
system.switch_cpus_1.commit.op_class_0::InstPrefetch            0      0.00%    100.00% # Class of committed instruction
system.switch_cpus_1.commit.op_class_0::total   1062485579                       # Class of committed instruction
system.switch_cpus_1.commit.refs            274705553                       # Number of memory references committed
system.switch_cpus_1.commit.swp_count               0                       # Number of s/w prefetches committed
system.switch_cpus_1.commit.vec_insts       501397773                       # Number of committed Vector instructions.
system.switch_cpus_1.committedInsts        1000000001                       # Number of Instructions Simulated
system.switch_cpus_1.committedOps          1062069956                       # Number of Ops (including micro ops) Simulated
system.switch_cpus_1.cpi                     0.591039                       # CPI: Cycles Per Instruction
system.switch_cpus_1.cpi_total               0.591039                       # CPI: Total CPI of All Threads
system.switch_cpus_1.decode.BlockedCycles    288046352                       # Number of cycles decode is blocked
system.switch_cpus_1.decode.BranchMispred          669                       # Number of times decode detected a branch misprediction
system.switch_cpus_1.decode.BranchResolved     62706084                       # Number of times decode resolved a branch
system.switch_cpus_1.decode.DecodedInsts   1298903073                       # Number of instructions handled by decode
system.switch_cpus_1.decode.IdleCycles      104465588                       # Number of cycles decode is idle
system.switch_cpus_1.decode.RunCycles       133890684                       # Number of cycles decode is running
system.switch_cpus_1.decode.SquashCycles      2926176                       # Number of cycles decode is squashing
system.switch_cpus_1.decode.SquashedInsts         1805                       # Number of squashed instructions handled by decode
system.switch_cpus_1.decode.UnblockCycles     61295883                       # Number of cycles decode is unblocking
system.switch_cpus_1.dtb.accesses                   0                       # DTB accesses
system.switch_cpus_1.dtb.align_faults               0                       # Number of TLB faults due to alignment restrictions
system.switch_cpus_1.dtb.domain_faults              0                       # Number of TLB faults due to domain restrictions
system.switch_cpus_1.dtb.flush_entries              0                       # Number of entries that have been flushed from TLB
system.switch_cpus_1.dtb.flush_tlb                  0                       # Number of times complete TLB was flushed
system.switch_cpus_1.dtb.flush_tlb_asid             0                       # Number of times TLB was flushed by ASID
system.switch_cpus_1.dtb.flush_tlb_mva              0                       # Number of times TLB was flushed by MVA
system.switch_cpus_1.dtb.flush_tlb_mva_asid            0                       # Number of times TLB was flushed by MVA & ASID
system.switch_cpus_1.dtb.hits                       0                       # DTB hits
system.switch_cpus_1.dtb.inst_accesses              0                       # ITB inst accesses
system.switch_cpus_1.dtb.inst_hits                  0                       # ITB inst hits
system.switch_cpus_1.dtb.inst_misses                0                       # ITB inst misses
system.switch_cpus_1.dtb.misses                     0                       # DTB misses
system.switch_cpus_1.dtb.perms_faults               0                       # Number of TLB faults due to permissions restrictions
system.switch_cpus_1.dtb.prefetch_faults            0                       # Number of TLB faults due to prefetch
system.switch_cpus_1.dtb.read_accesses              0                       # DTB read accesses
system.switch_cpus_1.dtb.read_hits                  0                       # DTB read hits
system.switch_cpus_1.dtb.read_misses                0                       # DTB read misses
system.switch_cpus_1.dtb.stage2_mmu.stage2_tlb.accesses            0                       # DTB accesses
system.switch_cpus_1.dtb.stage2_mmu.stage2_tlb.align_faults            0                       # Number of TLB faults due to alignment restrictions
system.switch_cpus_1.dtb.stage2_mmu.stage2_tlb.domain_faults            0                       # Number of TLB faults due to domain restrictions
system.switch_cpus_1.dtb.stage2_mmu.stage2_tlb.flush_entries            0                       # Number of entries that have been flushed from TLB
system.switch_cpus_1.dtb.stage2_mmu.stage2_tlb.flush_tlb            0                       # Number of times complete TLB was flushed
system.switch_cpus_1.dtb.stage2_mmu.stage2_tlb.flush_tlb_asid            0                       # Number of times TLB was flushed by ASID
system.switch_cpus_1.dtb.stage2_mmu.stage2_tlb.flush_tlb_mva            0                       # Number of times TLB was flushed by MVA
system.switch_cpus_1.dtb.stage2_mmu.stage2_tlb.flush_tlb_mva_asid            0                       # Number of times TLB was flushed by MVA & ASID
system.switch_cpus_1.dtb.stage2_mmu.stage2_tlb.hits            0                       # DTB hits
system.switch_cpus_1.dtb.stage2_mmu.stage2_tlb.inst_accesses            0                       # ITB inst accesses
system.switch_cpus_1.dtb.stage2_mmu.stage2_tlb.inst_hits            0                       # ITB inst hits
system.switch_cpus_1.dtb.stage2_mmu.stage2_tlb.inst_misses            0                       # ITB inst misses
system.switch_cpus_1.dtb.stage2_mmu.stage2_tlb.misses            0                       # DTB misses
system.switch_cpus_1.dtb.stage2_mmu.stage2_tlb.perms_faults            0                       # Number of TLB faults due to permissions restrictions
system.switch_cpus_1.dtb.stage2_mmu.stage2_tlb.prefetch_faults            0                       # Number of TLB faults due to prefetch
system.switch_cpus_1.dtb.stage2_mmu.stage2_tlb.read_accesses            0                       # DTB read accesses
system.switch_cpus_1.dtb.stage2_mmu.stage2_tlb.read_hits            0                       # DTB read hits
system.switch_cpus_1.dtb.stage2_mmu.stage2_tlb.read_misses            0                       # DTB read misses
system.switch_cpus_1.dtb.stage2_mmu.stage2_tlb.walker.walkRequestOrigin_Requested::Data            0                       # Table walker requests started/completed, data/inst
system.switch_cpus_1.dtb.stage2_mmu.stage2_tlb.walker.walkRequestOrigin_Requested::Inst            0                       # Table walker requests started/completed, data/inst
system.switch_cpus_1.dtb.stage2_mmu.stage2_tlb.walker.walkRequestOrigin_Requested::total            0                       # Table walker requests started/completed, data/inst
system.switch_cpus_1.dtb.stage2_mmu.stage2_tlb.walker.walkRequestOrigin_Completed::Data            0                       # Table walker requests started/completed, data/inst
system.switch_cpus_1.dtb.stage2_mmu.stage2_tlb.walker.walkRequestOrigin_Completed::Inst            0                       # Table walker requests started/completed, data/inst
system.switch_cpus_1.dtb.stage2_mmu.stage2_tlb.walker.walkRequestOrigin_Completed::total            0                       # Table walker requests started/completed, data/inst
system.switch_cpus_1.dtb.stage2_mmu.stage2_tlb.walker.walkRequestOrigin::total            0                       # Table walker requests started/completed, data/inst
system.switch_cpus_1.dtb.stage2_mmu.stage2_tlb.walker.walks            0                       # Table walker walks requested
system.switch_cpus_1.dtb.stage2_mmu.stage2_tlb.write_accesses            0                       # DTB write accesses
system.switch_cpus_1.dtb.stage2_mmu.stage2_tlb.write_hits            0                       # DTB write hits
system.switch_cpus_1.dtb.stage2_mmu.stage2_tlb.write_misses            0                       # DTB write misses
system.switch_cpus_1.dtb.walker.walkRequestOrigin_Requested::Data            0                       # Table walker requests started/completed, data/inst
system.switch_cpus_1.dtb.walker.walkRequestOrigin_Requested::Inst            0                       # Table walker requests started/completed, data/inst
system.switch_cpus_1.dtb.walker.walkRequestOrigin_Requested::total            0                       # Table walker requests started/completed, data/inst
system.switch_cpus_1.dtb.walker.walkRequestOrigin_Completed::Data            0                       # Table walker requests started/completed, data/inst
system.switch_cpus_1.dtb.walker.walkRequestOrigin_Completed::Inst            0                       # Table walker requests started/completed, data/inst
[...]
system.cpu.dcache.ReadReq_miss_latency::.switch_cpus_1.data 493212263500                       # number of ReadReq miss cycles
system.cpu.dcache.ReadReq_miss_latency::total 493250166000                       # number of ReadReq miss cycles
system.cpu.dcache.ReadReq_accesses::.cpu.data    196370083                       # number of ReadReq accesses(hits+misses)
system.cpu.dcache.ReadReq_accesses::.switch_cpus.data      9287403                       # number of ReadReq accesses(hits+misses)
system.cpu.dcache.ReadReq_accesses::.switch_cpus_1.data    228921398                       # number of ReadReq accesses(hits+misses)
system.cpu.dcache.ReadReq_accesses::total    434578884                       # number of ReadReq accesses(hits+misses)
system.cpu.dcache.ReadReq_miss_rate::.cpu.data     0.000333                       # miss rate for ReadReq accesses
system.cpu.dcache.ReadReq_miss_rate::.switch_cpus.data     0.000314                       # miss rate for ReadReq accesses
system.cpu.dcache.ReadReq_miss_rate::.switch_cpus_1.data     0.165962                       # miss rate for ReadReq accesses
system.cpu.dcache.ReadReq_miss_rate::total     0.087581                       # miss rate for ReadReq accesses
system.cpu.dcache.ReadReq_avg_miss_latency::.switch_cpus.data 12980.308219                       # average ReadReq miss latency
system.cpu.dcache.ReadReq_avg_miss_latency::.switch_cpus_1.data 12981.906444                       # average ReadReq miss latency
system.cpu.dcache.ReadReq_avg_miss_latency::total 12959.577220                       # average ReadReq miss latency
system.cpu.dcache.ReadReq_mshr_hits::.switch_cpus.data            9                       # number of ReadReq MSHR hits
system.cpu.dcache.ReadReq_mshr_hits::.switch_cpus_1.data     26950856                       # number of ReadReq MSHR hits
system.cpu.dcache.ReadReq_mshr_hits::total     26950865                       # number of ReadReq MSHR hits
system.cpu.dcache.ReadReq_mshr_misses::.switch_cpus.data         2911                       # number of ReadReq MSHR misses
system.cpu.dcache.ReadReq_mshr_misses::.switch_cpus_1.data     11041427                       # number of ReadReq MSHR misses
system.cpu.dcache.ReadReq_mshr_misses::total     11044338                       # number of ReadReq MSHR misses
system.cpu.dcache.ReadReq_mshr_miss_latency::.switch_cpus.data     34946500                       # number of ReadReq MSHR miss cycles
system.cpu.dcache.ReadReq_mshr_miss_latency::.switch_cpus_1.data 137392385500                       # number of ReadReq MSHR miss cycles
system.cpu.dcache.ReadReq_mshr_miss_latency::total 137427332000                       # number of ReadReq MSHR miss cycles
system.cpu.dcache.ReadReq_mshr_miss_rate::.switch_cpus.data     0.000313                       # mshr miss rate for ReadReq accesses
system.cpu.dcache.ReadReq_mshr_miss_rate::.switch_cpus_1.data     0.048232                       # mshr miss rate for ReadReq accesses
system.cpu.dcache.ReadReq_mshr_miss_rate::total     0.025414                       # mshr miss rate for ReadReq accesses
system.cpu.dcache.ReadReq_avg_mshr_miss_latency::.switch_cpus.data 12004.981106                       # average ReadReq mshr miss latency
system.cpu.dcache.ReadReq_avg_mshr_miss_latency::.switch_cpus_1.data 12443.354061                       # average ReadReq mshr miss latency
system.cpu.dcache.ReadReq_avg_mshr_miss_latency::total 12443.238517                       # average ReadReq mshr miss latency
system.cpu.dcache.WriteReq_hits::.cpu.data    159508020                       # number of WriteReq hits
system.cpu.dcache.WriteReq_hits::.switch_cpus.data      6397207                       # number of WriteReq hits
system.cpu.dcache.WriteReq_hits::.switch_cpus_1.data     64735540                       # number of WriteReq hits
system.cpu.dcache.WriteReq_hits::total      230640767                       # number of WriteReq hits
system.cpu.dcache.WriteReq_misses::.cpu.data       193310                       # number of WriteReq misses
system.cpu.dcache.WriteReq_misses::.switch_cpus.data        13920                       # number of WriteReq misses
system.cpu.dcache.WriteReq_misses::.switch_cpus_1.data      6891475                       # number of WriteReq misses
system.cpu.dcache.WriteReq_misses::total      7098705                       # number of WriteReq misses
system.cpu.dcache.WriteReq_miss_latency::.switch_cpus.data    844223000                       # number of WriteReq miss cycles
system.cpu.dcache.WriteReq_miss_latency::.switch_cpus_1.data 437668662905                       # number of WriteReq miss cycles
system.cpu.dcache.WriteReq_miss_latency::total 438512885905                       # number of WriteReq miss cycles
system.cpu.dcache.WriteReq_accesses::.cpu.data    159701330                       # number of WriteReq accesses(hits+misses)
system.cpu.dcache.WriteReq_accesses::.switch_cpus.data      6411127                       # number of WriteReq accesses(hits+misses)
system.cpu.dcache.WriteReq_accesses::.switch_cpus_1.data     71627015                       # number of WriteReq accesses(hits+misses)
system.cpu.dcache.WriteReq_accesses::total    237739472                       # number of WriteReq accesses(hits+misses)
system.cpu.dcache.WriteReq_miss_rate::.cpu.data     0.001210                       # miss rate for WriteReq accesses
system.cpu.dcache.WriteReq_miss_rate::.switch_cpus.data     0.002171                       # miss rate for WriteReq accesses
system.cpu.dcache.WriteReq_miss_rate::.switch_cpus_1.data     0.096213                       # miss rate for WriteReq accesses
system.cpu.dcache.WriteReq_miss_rate::total     0.029859                       # miss rate for WriteReq accesses
system.cpu.dcache.WriteReq_avg_miss_latency::.switch_cpus.data 60648.204023                       # average WriteReq miss latency
system.cpu.dcache.WriteReq_avg_miss_latency::.switch_cpus_1.data 63508.706468                       # average WriteReq miss latency
system.cpu.dcache.WriteReq_avg_miss_latency::total 61773.645461                       # average WriteReq miss latency
system.cpu.dcache.WriteReq_mshr_hits::.switch_cpus_1.data      5834638                       # number of WriteReq MSHR hits
system.cpu.dcache.WriteReq_mshr_hits::total      5834638                       # number of WriteReq MSHR hits
system.cpu.dcache.WriteReq_mshr_misses::.switch_cpus.data        13920                       # number of WriteReq MSHR misses
system.cpu.dcache.WriteReq_mshr_misses::.switch_cpus_1.data      1056837                       # number of WriteReq MSHR misses
system.cpu.dcache.WriteReq_mshr_misses::total      1070757                       # number of WriteReq MSHR misses
system.cpu.dcache.WriteReq_mshr_miss_latency::.switch_cpus.data    830303000                       # number of WriteReq MSHR miss cycles
system.cpu.dcache.WriteReq_mshr_miss_latency::.switch_cpus_1.data  72076647392                       # number of WriteReq MSHR miss cycles
system.cpu.dcache.WriteReq_mshr_miss_latency::total  72906950392                       # number of WriteReq MSHR miss cycles
system.cpu.dcache.WriteReq_mshr_miss_rate::.switch_cpus.data     0.002171                       # mshr miss rate for WriteReq accesses
system.cpu.dcache.WriteReq_mshr_miss_rate::.switch_cpus_1.data     0.014755                       # mshr miss rate for WriteReq accesses
system.cpu.dcache.WriteReq_mshr_miss_rate::total     0.004504                       # mshr miss rate for WriteReq accesses
system.cpu.dcache.WriteReq_avg_mshr_miss_latency::.switch_cpus.data 59648.204023                       # average WriteReq mshr miss latency
system.cpu.dcache.WriteReq_avg_mshr_miss_latency::.switch_cpus_1.data 68200.344416                       # average WriteReq mshr miss latency
system.cpu.dcache.WriteReq_avg_mshr_miss_latency::total 68089.165321                       # average WriteReq mshr miss latency
system.cpu.dcache.SoftPFReq_hits::.cpu.data       737146                       # number of SoftPFReq hits
system.cpu.dcache.SoftPFReq_hits::.switch_cpus.data        60839                       # number of SoftPFReq hits
system.cpu.dcache.SoftPFReq_hits::.switch_cpus_1.data       288329                       # number of SoftPFReq hits
system.cpu.dcache.SoftPFReq_hits::total       1086314                       # number of SoftPFReq hits
system.cpu.dcache.SoftPFReq_misses::.cpu.data          934                       # number of SoftPFReq misses
system.cpu.dcache.SoftPFReq_misses::.switch_cpus.data            9                       # number of SoftPFReq misses
system.cpu.dcache.SoftPFReq_misses::.switch_cpus_1.data           49                       # number of SoftPFReq misses
system.cpu.dcache.SoftPFReq_misses::total          992                       # number of SoftPFReq misses
system.cpu.dcache.SoftPFReq_accesses::.cpu.data       738080                       # number of SoftPFReq accesses(hits+misses)
system.cpu.dcache.SoftPFReq_accesses::.switch_cpus.data        60848                       # number of SoftPFReq accesses(hits+misses)
system.cpu.dcache.SoftPFReq_accesses::.switch_cpus_1.data       288378                       # number of SoftPFReq accesses(hits+misses)
system.cpu.dcache.SoftPFReq_accesses::total      1087306                       # number of SoftPFReq accesses(hits+misses)
system.cpu.dcache.SoftPFReq_miss_rate::.cpu.data     0.001265                       # miss rate for SoftPFReq accesses
system.cpu.dcache.SoftPFReq_miss_rate::.switch_cpus.data     0.000148                       # miss rate for SoftPFReq accesses
system.cpu.dcache.SoftPFReq_miss_rate::.switch_cpus_1.data     0.000170                       # miss rate for SoftPFReq accesses
system.cpu.dcache.SoftPFReq_miss_rate::total     0.000912                       # miss rate for SoftPFReq accesses
system.cpu.dcache.SoftPFReq_mshr_misses::.switch_cpus.data            9                       # number of SoftPFReq MSHR misses
system.cpu.dcache.SoftPFReq_mshr_misses::.switch_cpus_1.data           48                       # number of SoftPFReq MSHR misses
system.cpu.dcache.SoftPFReq_mshr_misses::total           57                       # number of SoftPFReq MSHR misses
system.cpu.dcache.SoftPFReq_mshr_miss_latency::.switch_cpus.data       108000                       # number of SoftPFReq MSHR miss cycles
system.cpu.dcache.SoftPFReq_mshr_miss_latency::.switch_cpus_1.data       663000                       # number of SoftPFReq MSHR miss cycles
system.cpu.dcache.SoftPFReq_mshr_miss_latency::total       771000                       # number of SoftPFReq MSHR miss cycles
system.cpu.dcache.SoftPFReq_mshr_miss_rate::.switch_cpus.data     0.000148                       # mshr miss rate for SoftPFReq accesses
system.cpu.dcache.SoftPFReq_mshr_miss_rate::.switch_cpus_1.data     0.000166                       # mshr miss rate for SoftPFReq accesses
system.cpu.dcache.SoftPFReq_mshr_miss_rate::total     0.000052                       # mshr miss rate for SoftPFReq accesses
system.cpu.dcache.SoftPFReq_avg_mshr_miss_latency::.switch_cpus.data        12000                       # average SoftPFReq mshr miss latency
system.cpu.dcache.SoftPFReq_avg_mshr_miss_latency::.switch_cpus_1.data 13812.500000                       # average SoftPFReq mshr miss latency
system.cpu.dcache.SoftPFReq_avg_mshr_miss_latency::total 13526.315789                       # average SoftPFReq mshr miss latency
system.cpu.dcache.WriteLineReq_hits::.cpu.data            7                       # number of WriteLineReq hits
system.cpu.dcache.WriteLineReq_hits::total            7                       # number of WriteLineReq hits
system.cpu.dcache.WriteLineReq_misses::.cpu.data            8                       # number of WriteLineReq misses
system.cpu.dcache.WriteLineReq_misses::total            8                       # number of WriteLineReq misses
system.cpu.dcache.WriteLineReq_accesses::.cpu.data           15                       # number of WriteLineReq accesses(hits+misses)
system.cpu.dcache.WriteLineReq_accesses::total           15                       # number of WriteLineReq accesses(hits+misses)
system.cpu.dcache.WriteLineReq_miss_rate::.cpu.data     0.533333                       # miss rate for WriteLineReq accesses
system.cpu.dcache.WriteLineReq_miss_rate::total     0.533333                       # miss rate for WriteLineReq accesses
system.cpu.dcache.LoadLockedReq_hits::.cpu.data      1594677                       # number of LoadLockedReq hits
system.cpu.dcache.LoadLockedReq_hits::.switch_cpus.data        12206                       # number of LoadLockedReq hits
system.cpu.dcache.LoadLockedReq_hits::.switch_cpus_1.data        58406                       # number of LoadLockedReq hits
system.cpu.dcache.LoadLockedReq_hits::total      1665289                       # number of LoadLockedReq hits
system.cpu.dcache.LoadLockedReq_misses::.switch_cpus_1.data            3                       # number of LoadLockedReq misses
system.cpu.dcache.LoadLockedReq_misses::total            3                       # number of LoadLockedReq misses
system.cpu.dcache.LoadLockedReq_miss_latency::.switch_cpus_1.data       215000                       # number of LoadLockedReq miss cycles
system.cpu.dcache.LoadLockedReq_miss_latency::total       215000                       # number of LoadLockedReq miss cycles
system.cpu.dcache.LoadLockedReq_accesses::.cpu.data      1594677                       # number of LoadLockedReq accesses(hits+misses)
system.cpu.dcache.LoadLockedReq_accesses::.switch_cpus.data        12206                       # number of LoadLockedReq accesses(hits+misses)
system.cpu.dcache.LoadLockedReq_accesses::.switch_cpus_1.data        58409                       # number of LoadLockedReq accesses(hits+misses)
system.cpu.dcache.LoadLockedReq_accesses::total      1665292                       # number of LoadLockedReq accesses(hits+misses)
system.cpu.dcache.LoadLockedReq_miss_rate::.switch_cpus_1.data     0.000051                       # miss rate for LoadLockedReq accesses
system.cpu.dcache.LoadLockedReq_miss_rate::total     0.000002                       # miss rate for LoadLockedReq accesses
system.cpu.dcache.LoadLockedReq_avg_miss_latency::.switch_cpus_1.data 71666.666667                       # average LoadLockedReq miss latency
system.cpu.dcache.LoadLockedReq_avg_miss_latency::total 71666.666667                       # average LoadLockedReq miss latency
system.cpu.dcache.LoadLockedReq_mshr_hits::.switch_cpus_1.data            2                       # number of LoadLockedReq MSHR hits
system.cpu.dcache.LoadLockedReq_mshr_hits::total            2                       # number of LoadLockedReq MSHR hits
system.cpu.dcache.LoadLockedReq_mshr_misses::.switch_cpus_1.data            1                       # number of LoadLockedReq MSHR misses
system.cpu.dcache.LoadLockedReq_mshr_misses::total            1                       # number of LoadLockedReq MSHR misses
system.cpu.dcache.LoadLockedReq_mshr_miss_latency::.switch_cpus_1.data       105500                       # number of LoadLockedReq MSHR miss cycles
system.cpu.dcache.LoadLockedReq_mshr_miss_latency::total       105500                       # number of LoadLockedReq MSHR miss cycles
system.cpu.dcache.LoadLockedReq_mshr_miss_rate::.switch_cpus_1.data     0.000017                       # mshr miss rate for LoadLockedReq accesses
system.cpu.dcache.LoadLockedReq_mshr_miss_rate::total     0.000001                       # mshr miss rate for LoadLockedReq accesses
system.cpu.dcache.LoadLockedReq_avg_mshr_miss_latency::.switch_cpus_1.data       105500                       # average LoadLockedReq mshr miss latency
system.cpu.dcache.LoadLockedReq_avg_mshr_miss_latency::total       105500                       # average LoadLockedReq mshr miss latency
system.cpu.dcache.StoreCondReq_hits::.cpu.data      1594677                       # number of StoreCondReq hits
system.cpu.dcache.StoreCondReq_hits::.switch_cpus.data        12206                       # number of StoreCondReq hits
system.cpu.dcache.StoreCondReq_hits::.switch_cpus_1.data        58137                       # number of StoreCondReq hits
system.cpu.dcache.StoreCondReq_hits::total      1665020                       # number of StoreCondReq hits
system.cpu.dcache.StoreCondReq_accesses::.cpu.data      1594677                       # number of StoreCondReq accesses(hits+misses)
system.cpu.dcache.StoreCondReq_accesses::.switch_cpus.data        12206                       # number of StoreCondReq accesses(hits+misses)
system.cpu.dcache.StoreCondReq_accesses::.switch_cpus_1.data        58137                       # number of StoreCondReq accesses(hits+misses)
system.cpu.dcache.StoreCondReq_accesses::total      1665020                       # number of StoreCondReq accesses(hits+misses)
system.cpu.dcache.power_state.pwrStateResidencyTicks::UNDEFINED 923929375000                       # Cumulative time (in ticks) in various power states
system.cpu.dcache.tags.tagsinuse           511.876563                       # Cycle average of tags in use
system.cpu.dcache.tags.total_refs           643950483                       # Total number of references to valid blocks.
system.cpu.dcache.tags.sampled_refs          12374870                       # Sample count of references to valid blocks.
system.cpu.dcache.tags.avg_refs             52.036949                       # Average number of references to valid blocks.
system.cpu.dcache.tags.warmup_cycle              1500                       # Cycle when the warmup percentage was hit.
system.cpu.dcache.tags.occ_blocks::.cpu.data   312.638087                       # Average occupied blocks per requestor
system.cpu.dcache.tags.occ_blocks::.switch_cpus.data    35.821965                       # Average occupied blocks per requestor
system.cpu.dcache.tags.occ_blocks::.switch_cpus_1.data   163.416511                       # Average occupied blocks per requestor
system.cpu.dcache.tags.occ_percent::.cpu.data     0.610621                       # Average percentage of cache occupancy
system.cpu.dcache.tags.occ_percent::.switch_cpus.data     0.069965                       # Average percentage of cache occupancy
system.cpu.dcache.tags.occ_percent::.switch_cpus_1.data     0.319173                       # Average percentage of cache occupancy
system.cpu.dcache.tags.occ_percent::total     0.999759                       # Average percentage of cache occupancy
system.cpu.dcache.tags.occ_task_id_blocks::1024          512                       # Occupied blocks per task id
system.cpu.dcache.tags.age_task_id_blocks_1024::0          254                       # Occupied blocks per task id
system.cpu.dcache.tags.age_task_id_blocks_1024::1           58                       # Occupied blocks per task id
system.cpu.dcache.tags.age_task_id_blocks_1024::2          104                       # Occupied blocks per task id
system.cpu.dcache.tags.age_task_id_blocks_1024::3           96                       # Occupied blocks per task id
system.cpu.dcache.tags.occ_task_id_percent::1024            1                       # Percentage of cache occupancy per task id
system.cpu.dcache.tags.tag_accesses        1365846848                       # Number of tag accesses
system.cpu.dcache.tags.data_accesses       1365846848                       # Number of data accesses
system.cpu.dcache.tags.power_state.pwrStateResidencyTicks::UNDEFINED 923929375000                       # Cumulative time (in ticks) in various power states
system.cpu.power_state.numTransitions               2                       # Number of power state transitions
system.cpu.power_state.pwrStateResidencyTicks::ON 560723711000                       # Cumulative time (in ticks) in various power states
system.cpu.power_state.pwrStateResidencyTicks::OFF 363205664000                       # Cumulative time (in ticks) in various power states

---------- End Simulation Statistics   ----------
