
---------- Begin Simulation Statistics ----------
final_tick                               669592361000                       # Number of ticks from beginning of simulation (restored from checkpoints and never reset)
host_inst_rate                                 381764                       # Simulator instruction rate (inst/s)
host_mem_usage                                 869660                       # Number of bytes of host memory used
host_op_rate                                   382509                       # Simulator op (including micro ops) rate (op/s)
host_seconds                                  5238.83                       # Real time elapsed on the host
host_tick_rate                               32094651                       # Simulator tick rate (ticks/s)
sim_freq                                 1000000000000                       # Frequency of simulated ticks
sim_insts                                  2000000006                       # Number of instructions simulated
sim_ops                                    2003902522                       # Number of ops (including micro ops) simulated
sim_seconds                                  0.168139                       # Number of seconds simulated
sim_ticks                                168138551500                       # Number of ticks simulated
system.cpu.committedInsts                           0                       # Number of instructions committed
system.cpu.committedOps                             0                       # Number of ops (including micro ops) committed
system.cpu.dtb.accesses                             0                       # DTB accesses
system.cpu.dtb.align_faults                         0                       # Number of TLB faults due to alignment restrictions
system.cpu.dtb.domain_faults                        0                       # Number of TLB faults due to domain restrictions
system.cpu.dtb.flush_entries                        0                       # Number of entries that have been flushed from TLB
system.cpu.dtb.flush_tlb                            0                       # Number of times complete TLB was flushed
system.cpu.dtb.flush_tlb_asid                       0                       # Number of times TLB was flushed by ASID
system.cpu.dtb.flush_tlb_mva                        0                       # Number of times TLB was flushed by MVA
system.cpu.dtb.flush_tlb_mva_asid                   0                       # Number of times TLB was flushed by MVA & ASID
system.cpu.dtb.hits                                 0                       # DTB hits
system.cpu.dtb.inst_accesses                        0                       # ITB inst accesses
system.cpu.dtb.inst_hits                            0                       # ITB inst hits
system.cpu.dtb.inst_misses                          0                       # ITB inst misses
system.cpu.dtb.misses                               0                       # DTB misses
system.cpu.dtb.perms_faults                         0                       # Number of TLB faults due to permissions restrictions
system.cpu.dtb.prefetch_faults                      0                       # Number of TLB faults due to prefetch
system.cpu.dtb.read_accesses                        0                       # DTB read accesses
system.cpu.dtb.read_hits                            0                       # DTB read hits
system.cpu.dtb.read_misses                          0                       # DTB read misses
system.cpu.dtb.stage2_mmu.stage2_tlb.accesses            0                       # DTB accesses
system.cpu.dtb.stage2_mmu.stage2_tlb.align_faults            0                       # Number of TLB faults due to alignment restrictions
system.cpu.dtb.stage2_mmu.stage2_tlb.domain_faults            0                       # Number of TLB faults due to domain restrictions
system.cpu.dtb.stage2_mmu.stage2_tlb.flush_entries            0                       # Number of entries that have been flushed from TLB
system.cpu.dtb.stage2_mmu.stage2_tlb.flush_tlb            0                       # Number of times complete TLB was flushed
system.cpu.dtb.stage2_mmu.stage2_tlb.flush_tlb_asid            0                       # Number of times TLB was flushed by ASID
system.cpu.dtb.stage2_mmu.stage2_tlb.flush_tlb_mva            0                       # Number of times TLB was flushed by MVA
system.cpu.dtb.stage2_mmu.stage2_tlb.flush_tlb_mva_asid            0                       # Number of times TLB was flushed by MVA & ASID
system.cpu.dtb.stage2_mmu.stage2_tlb.hits            0                       # DTB hits
system.cpu.dtb.stage2_mmu.stage2_tlb.inst_accesses            0                       # ITB inst accesses
system.cpu.dtb.stage2_mmu.stage2_tlb.inst_hits            0                       # ITB inst hits
system.cpu.dtb.stage2_mmu.stage2_tlb.inst_misses            0                       # ITB inst misses
system.cpu.dtb.stage2_mmu.stage2_tlb.misses            0                       # DTB misses
system.cpu.dtb.stage2_mmu.stage2_tlb.perms_faults            0                       # Number of TLB faults due to permissions restrictions
system.cpu.dtb.stage2_mmu.stage2_tlb.prefetch_faults            0                       # Number of TLB faults due to prefetch
system.cpu.dtb.stage2_mmu.stage2_tlb.read_accesses            0                       # DTB read accesses
system.cpu.dtb.stage2_mmu.stage2_tlb.read_hits            0                       # DTB read hits
system.cpu.dtb.stage2_mmu.stage2_tlb.read_misses            0                       # DTB read misses
system.cpu.dtb.stage2_mmu.stage2_tlb.walker.walkRequestOrigin_Requested::Data            0                       # Table walker requests started/completed, data/inst
system.cpu.dtb.stage2_mmu.stage2_tlb.walker.walkRequestOrigin_Requested::Inst            0                       # Table walker requests started/completed, data/inst
system.cpu.dtb.stage2_mmu.stage2_tlb.walker.walkRequestOrigin_Requested::total            0                       # Table walker requests started/completed, data/inst
system.cpu.dtb.stage2_mmu.stage2_tlb.walker.walkRequestOrigin_Completed::Data            0                       # Table walker requests started/completed, data/inst
system.cpu.dtb.stage2_mmu.stage2_tlb.walker.walkRequestOrigin_Completed::Inst            0                       # Table walker requests started/completed, data/inst
system.cpu.dtb.stage2_mmu.stage2_tlb.walker.walkRequestOrigin_Completed::total            0                       # Table walker requests started/completed, data/inst
system.cpu.dtb.stage2_mmu.stage2_tlb.walker.walkRequestOrigin::total            0                       # Table walker requests started/completed, data/inst
system.cpu.dtb.stage2_mmu.stage2_tlb.walker.walks            0                       # Table walker walks requested
system.cpu.dtb.stage2_mmu.stage2_tlb.write_accesses            0                       # DTB write accesses
system.cpu.dtb.stage2_mmu.stage2_tlb.write_hits            0                       # DTB write hits
system.cpu.dtb.stage2_mmu.stage2_tlb.write_misses            0                       # DTB write misses
system.cpu.dtb.walker.walkRequestOrigin_Requested::Data            0                       # Table walker requests started/completed, data/inst
system.cpu.dtb.walker.walkRequestOrigin_Requested::Inst            0                       # Table walker requests started/completed, data/inst
system.cpu.dtb.walker.walkRequestOrigin_Requested::total            0                       # Table walker requests started/completed, data/inst
system.cpu.dtb.walker.walkRequestOrigin_Completed::Data            0                       # Table walker requests started/completed, data/inst
system.cpu.dtb.walker.walkRequestOrigin_Completed::Inst            0                       # Table walker requests started/completed, data/inst
system.cpu.dtb.walker.walkRequestOrigin_Completed::total            0                       # Table walker requests started/completed, data/inst
system.cpu.dtb.walker.walkRequestOrigin::total            0                       # Table walker requests started/completed, data/inst
system.cpu.dtb.walker.walks                         0                       # Table walker walks requested
system.cpu.dtb.write_accesses                       0                       # DTB write accesses
system.cpu.dtb.write_hits                           0                       # DTB write hits
system.cpu.dtb.write_misses                         0                       # DTB write misses
system.cpu.idle_fraction                            0                       # Percentage of idle cycles
system.cpu.itb.accesses                             0                       # DTB accesses
system.cpu.itb.align_faults                         0                       # Number of TLB faults due to alignment restrictions
system.cpu.itb.domain_faults                        0                       # Number of TLB faults due to domain restrictions
system.cpu.itb.flush_entries                        0                       # Number of entries that have been flushed from TLB
system.cpu.itb.flush_tlb                            0                       # Number of times complete TLB was flushed
system.cpu.itb.flush_tlb_asid                       0                       # Number of times TLB was flushed by ASID
system.cpu.itb.flush_tlb_mva                        0                       # Number of times TLB was flushed by MVA
system.cpu.itb.flush_tlb_mva_asid                   0                       # Number of times TLB was flushed by MVA & ASID
system.cpu.itb.hits                                 0                       # DTB hits
system.cpu.itb.inst_accesses                        0                       # ITB inst accesses
system.cpu.itb.inst_hits                            0                       # ITB inst hits
system.cpu.itb.inst_misses                          0                       # ITB inst misses
system.cpu.itb.misses                               0                       # DTB misses
system.cpu.itb.perms_faults                         0                       # Number of TLB faults due to permissions restrictions
system.cpu.itb.prefetch_faults                      0                       # Number of TLB faults due to prefetch
system.cpu.itb.read_accesses                        0                       # DTB read accesses
system.cpu.itb.read_hits                            0                       # DTB read hits
system.cpu.itb.read_misses                          0                       # DTB read misses
system.cpu.itb.stage2_mmu.stage2_tlb.accesses            0                       # DTB accesses
system.cpu.itb.stage2_mmu.stage2_tlb.align_faults            0                       # Number of TLB faults due to alignment restrictions
system.cpu.itb.stage2_mmu.stage2_tlb.domain_faults            0                       # Number of TLB faults due to domain restrictions
system.cpu.itb.stage2_mmu.stage2_tlb.flush_entries            0                       # Number of entries that have been flushed from TLB
system.cpu.itb.stage2_mmu.stage2_tlb.flush_tlb            0                       # Number of times complete TLB was flushed
system.cpu.itb.stage2_mmu.stage2_tlb.flush_tlb_asid            0                       # Number of times TLB was flushed by ASID
system.cpu.itb.stage2_mmu.stage2_tlb.flush_tlb_mva            0                       # Number of times TLB was flushed by MVA
system.cpu.itb.stage2_mmu.stage2_tlb.flush_tlb_mva_asid            0                       # Number of times TLB was flushed by MVA & ASID
system.cpu.itb.stage2_mmu.stage2_tlb.hits            0                       # DTB hits
system.cpu.itb.stage2_mmu.stage2_tlb.inst_accesses            0                       # ITB inst accesses
system.cpu.itb.stage2_mmu.stage2_tlb.inst_hits            0                       # ITB inst hits
system.cpu.itb.stage2_mmu.stage2_tlb.inst_misses            0                       # ITB inst misses
system.cpu.itb.stage2_mmu.stage2_tlb.misses            0                       # DTB misses
system.cpu.itb.stage2_mmu.stage2_tlb.perms_faults            0                       # Number of TLB faults due to permissions restrictions
system.cpu.itb.stage2_mmu.stage2_tlb.prefetch_faults            0                       # Number of TLB faults due to prefetch
system.cpu.itb.stage2_mmu.stage2_tlb.read_accesses            0                       # DTB read accesses
system.cpu.itb.stage2_mmu.stage2_tlb.read_hits            0                       # DTB read hits
system.cpu.itb.stage2_mmu.stage2_tlb.read_misses            0                       # DTB read misses
system.cpu.itb.stage2_mmu.stage2_tlb.walker.walkRequestOrigin_Requested::Data            0                       # Table walker requests started/completed, data/inst
system.cpu.itb.stage2_mmu.stage2_tlb.walker.walkRequestOrigin_Requested::Inst            0                       # Table walker requests started/completed, data/inst
system.cpu.itb.stage2_mmu.stage2_tlb.walker.walkRequestOrigin_Requested::total            0                       # Table walker requests started/completed, data/inst
system.cpu.itb.stage2_mmu.stage2_tlb.walker.walkRequestOrigin_Completed::Data            0                       # Table walker requests started/completed, data/inst
system.cpu.itb.stage2_mmu.stage2_tlb.walker.walkRequestOrigin_Completed::Inst            0                       # Table walker requests started/completed, data/inst
system.cpu.itb.stage2_mmu.stage2_tlb.walker.walkRequestOrigin_Completed::total            0                       # Table walker requests started/completed, data/inst
system.cpu.itb.stage2_mmu.stage2_tlb.walker.walkRequestOrigin::total            0                       # Table walker requests started/completed, data/inst
system.cpu.itb.stage2_mmu.stage2_tlb.walker.walks            0                       # Table walker walks requested
system.cpu.itb.stage2_mmu.stage2_tlb.write_accesses            0                       # DTB write accesses
system.cpu.itb.stage2_mmu.stage2_tlb.write_hits            0                       # DTB write hits
system.cpu.itb.stage2_mmu.stage2_tlb.write_misses            0                       # DTB write misses
system.cpu.itb.walker.walkRequestOrigin_Requested::Data            0                       # Table walker requests started/completed, data/inst
system.cpu.itb.walker.walkRequestOrigin_Requested::Inst            0                       # Table walker requests started/completed, data/inst
system.cpu.itb.walker.walkRequestOrigin_Requested::total            0                       # Table walker requests started/completed, data/inst
system.cpu.itb.walker.walkRequestOrigin_Completed::Data            0                       # Table walker requests started/completed, data/inst
system.cpu.itb.walker.walkRequestOrigin_Completed::Inst            0                       # Table walker requests started/completed, data/inst
system.cpu.itb.walker.walkRequestOrigin_Completed::total            0                       # Table walker requests started/completed, data/inst
system.cpu.itb.walker.walkRequestOrigin::total            0                       # Table walker requests started/completed, data/inst
system.cpu.itb.walker.walks                         0                       # Table walker walks requested
system.cpu.itb.write_accesses                       0                       # DTB write accesses
system.cpu.itb.write_hits                           0                       # DTB write hits
system.cpu.itb.write_misses                         0                       # DTB write misses
system.cpu.not_idle_fraction                        1                       # Percentage of non-idle cycles
system.cpu.numCycles                                0                       # number of cpu cycles simulated
system.cpu.numWorkItemsCompleted                    0                       # number of work items this cpu completed
system.cpu.numWorkItemsStarted                      0                       # number of work items this cpu started
system.cpu.num_busy_cycles                          0                       # Number of busy cycles
system.cpu.num_conditional_control_insts            0                       # number of instructions that are conditional controls
system.cpu.num_fp_alu_accesses                      0                       # Number of float alu accesses
system.cpu.num_fp_insts                             0                       # number of float instructions
system.cpu.num_fp_register_reads                    0                       # number of times the floating registers were read
system.cpu.num_fp_register_writes                   0                       # number of times the floating registers were written
system.cpu.num_func_calls                           0                       # number of times a function call or return occured
system.cpu.num_idle_cycles                          0                       # Number of idle cycles
system.cpu.num_int_alu_accesses                     0                       # Number of integer alu accesses
system.cpu.num_int_insts                            0                       # number of integer instructions
system.cpu.num_int_register_reads                   0                       # number of times the integer registers were read
system.cpu.num_int_register_writes                  0                       # number of times the integer registers were written
system.cpu.num_load_insts                           0                       # Number of load instructions
system.cpu.num_mem_refs                             0                       # number of memory refs
system.cpu.num_store_insts                          0                       # Number of store instructions
system.cpu.num_vec_alu_accesses                     0                       # Number of vector alu accesses
system.cpu.num_vec_insts                            0                       # number of vector instructions
system.cpu.num_vec_register_reads                   0                       # number of times the vector registers were read
system.cpu.num_vec_register_writes                  0                       # number of times the vector registers were written
system.cpu.op_class::No_OpClass                     0                       # Class of executed instruction
system.cpu.op_class::IntAlu                         0                       # Class of executed instruction
system.cpu.op_class::IntMult                        0                       # Class of executed instruction
system.cpu.op_class::IntDiv                         0                       # Class of executed instruction
system.cpu.op_class::FloatAdd                       0                       # Class of executed instruction
system.cpu.op_class::FloatCmp                       0                       # Class of executed instruction
system.cpu.op_class::FloatCvt                       0                       # Class of executed instruction
system.cpu.op_class::FloatMult                      0                       # Class of executed instruction
system.cpu.op_class::FloatMultAcc                   0                       # Class of executed instruction
system.cpu.op_class::FloatDiv                       0                       # Class of executed instruction
system.cpu.op_class::FloatMisc                      0                       # Class of executed instruction
system.cpu.op_class::FloatSqrt                      0                       # Class of executed instruction
system.cpu.op_class::SimdAdd                        0                       # Class of executed instruction
system.cpu.op_class::SimdAddAcc                     0                       # Class of executed instruction
system.cpu.op_class::SimdAlu                        0                       # Class of executed instruction
system.cpu.op_class::SimdCmp                        0                       # Class of executed instruction
system.cpu.op_class::SimdCvt                        0                       # Class of executed instruction
system.cpu.op_class::SimdMisc                       0                       # Class of executed instruction
system.cpu.op_class::SimdMult                       0                       # Class of executed instruction
system.cpu.op_class::SimdMultAcc                    0                       # Class of executed instruction
system.cpu.op_class::SimdShift                      0                       # Class of executed instruction
system.cpu.op_class::SimdShiftAcc                   0                       # Class of executed instruction
system.cpu.op_class::SimdDiv                        0                       # Class of executed instruction
system.cpu.op_class::SimdSqrt                       0                       # Class of executed instruction
system.cpu.op_class::SimdFloatAdd                   0                       # Class of executed instruction
system.cpu.op_class::SimdFloatAlu                   0                       # Class of executed instruction
system.cpu.op_class::SimdFloatCmp                   0                       # Class of executed instruction
system.cpu.op_class::SimdFloatCvt                   0                       # Class of executed instruction
system.cpu.op_class::SimdFloatDiv                   0                       # Class of executed instruction
system.cpu.op_class::SimdFloatMisc                  0                       # Class of executed instruction
system.cpu.op_class::SimdFloatMult                  0                       # Class of executed instruction
system.cpu.op_class::SimdFloatMultAcc               0                       # Class of executed instruction
system.cpu.op_class::SimdFloatSqrt                  0                       # Class of executed instruction
system.cpu.op_class::SimdReduceAdd                  0                       # Class of executed instruction
system.cpu.op_class::SimdReduceAlu                  0                       # Class of executed instruction
system.cpu.op_class::SimdReduceCmp                  0                       # Class of executed instruction
system.cpu.op_class::SimdFloatReduceAdd             0                       # Class of executed instruction
system.cpu.op_class::SimdFloatReduceCmp             0                       # Class of executed instruction
system.cpu.op_class::SimdAes                        0                       # Class of executed instruction
system.cpu.op_class::SimdAesMix                     0                       # Class of executed instruction
system.cpu.op_class::SimdSha1Hash                   0                       # Class of executed instruction
system.cpu.op_class::SimdSha1Hash2                  0                       # Class of executed instruction
system.cpu.op_class::SimdSha256Hash                 0                       # Class of executed instruction
system.cpu.op_class::SimdSha256Hash2                0                       # Class of executed instruction
system.cpu.op_class::SimdShaSigma2                  0                       # Class of executed instruction
system.cpu.op_class::SimdShaSigma3                  0                       # Class of executed instruction
system.cpu.op_class::SimdPredAlu                    0                       # Class of executed instruction
system.cpu.op_class::MemRead                        0                       # Class of executed instruction
system.cpu.op_class::MemWrite                       0                       # Class of executed instruction
system.cpu.op_class::FloatMemRead                   0                       # Class of executed instruction
system.cpu.op_class::FloatMemWrite                  0                       # Class of executed instruction
system.cpu.op_class::IprAccess                      0                       # Class of executed instruction
system.cpu.op_class::InstPrefetch                   0                       # Class of executed instruction
system.cpu.op_class::total                          0                       # Class of executed instruction
system.cpu.workload.numSyscalls                     0                       # Number of system calls
system.membus.snoop_filter.hit_multi_requests            0                       # Number of requests hitting in the snoop filter with multiple (>1) holders of the requested data.
system.membus.snoop_filter.hit_multi_snoops            0                       # Number of snoops hitting in the snoop filter with multiple (>1) holders of the requested data.
system.membus.snoop_filter.hit_single_requests            0                       # Number of requests hitting in the snoop filter with a single holder of the requested data.
system.membus.snoop_filter.hit_single_snoops            0                       # Number of snoops hitting in the snoop filter with a single holder of the requested data.
system.membus.snoop_filter.tot_requests           599                       # Total number of requests made to the snoop filter.
system.membus.snoop_filter.tot_snoops               0                       # Total number of snoops made to the snoop filter.
system.switch_cpus.branchPred.BTBCorrect            0                       # Number of correct BTB predictions (this stat may not work properly.
system.switch_cpus.branchPred.BTBHitPct     99.997844                       # BTB Hit Percentage
system.switch_cpus.branchPred.BTBHits        31903527                       # Number of BTB hits
system.switch_cpus.branchPred.BTBLookups     31904215                       # Number of BTB lookups
system.switch_cpus.branchPred.RASInCorrect            1                       # Number of incorrect RAS predictions.
system.switch_cpus.branchPred.condIncorrect       239757                       # Number of conditional branches incorrect
system.switch_cpus.branchPred.condPredicted     48175271                       # Number of conditional branches predicted
system.switch_cpus.branchPred.indirectHits            0                       # Number of indirect target hits.
system.switch_cpus.branchPred.indirectLookups            0                       # Number of indirect predictor lookups.
system.switch_cpus.branchPred.indirectMisses            0                       # Number of indirect misses.
system.switch_cpus.branchPred.lookups        48982780                       # Number of BP lookups
system.switch_cpus.branchPred.loop_predictor.loopPredictorCorrect     34475692                       # Number of times the loop predictor is the provider and the prediction is correct
system.switch_cpus.branchPred.loop_predictor.loopPredictorWrong     11518759                       # Number of times the loop predictor is the provider and the prediction is wrong
system.switch_cpus.branchPred.statistical_corrector.scPredictorCorrect     15764723                       # Number of time the SC predictor is the provider and the prediction is correct
system.switch_cpus.branchPred.statistical_corrector.scPredictorWrong     30229728                       # Number of time the SC predictor is the provider and the prediction is wrong
system.switch_cpus.branchPred.tage.bimodalAltMatchProviderCorrect          704                       # Number of times TAGE Alt Match is the bimodal and it is the provider and the prediction is correct
system.switch_cpus.branchPred.tage.bimodalAltMatchProviderWrong           16                       # Number of times TAGE Alt Match is the bimodal and it is the provider and the prediction is wrong
system.switch_cpus.branchPred.tage.tageAltMatchProvider::0       510150                       # TAGE provider for alt match
system.switch_cpus.branchPred.tage.tageAltMatchProvider::1            0                       # TAGE provider for alt match
system.switch_cpus.branchPred.tage.tageAltMatchProvider::2        37052                       # TAGE provider for alt match
system.switch_cpus.branchPred.tage.tageAltMatchProvider::3            0                       # TAGE provider for alt match
system.switch_cpus.branchPred.tage.tageAltMatchProvider::4        69626                       # TAGE provider for alt match
system.switch_cpus.branchPred.tage.tageAltMatchProvider::5            0                       # TAGE provider for alt match
system.switch_cpus.branchPred.tage.tageAltMatchProvider::6        38933                       # TAGE provider for alt match
system.switch_cpus.branchPred.tage.tageAltMatchProvider::7      2094523                       # TAGE provider for alt match
system.switch_cpus.branchPred.tage.tageAltMatchProvider::8      4669118                       # TAGE provider for alt match
system.switch_cpus.branchPred.tage.tageAltMatchProvider::9      4434003                       # TAGE provider for alt match
system.switch_cpus.branchPred.tage.tageAltMatchProvider::10      4850818                       # TAGE provider for alt match
system.switch_cpus.branchPred.tage.tageAltMatchProvider::11       673940                       # TAGE provider for alt match
system.switch_cpus.branchPred.tage.tageAltMatchProvider::12       916216                       # TAGE provider for alt match
system.switch_cpus.branchPred.tage.tageAltMatchProvider::13      1561187                       # TAGE provider for alt match
system.switch_cpus.branchPred.tage.tageAltMatchProvider::14      1219187                       # TAGE provider for alt match
system.switch_cpus.branchPred.tage.tageAltMatchProvider::15      1897876                       # TAGE provider for alt match
system.switch_cpus.branchPred.tage.tageAltMatchProvider::16      2507144                       # TAGE provider for alt match
system.switch_cpus.branchPred.tage.tageAltMatchProvider::17       421781                       # TAGE provider for alt match
system.switch_cpus.branchPred.tage.tageAltMatchProvider::18       839960                       # TAGE provider for alt match
system.switch_cpus.branchPred.tage.tageAltMatchProvider::19       966982                       # TAGE provider for alt match
system.switch_cpus.branchPred.tage.tageAltMatchProvider::20      1239241                       # TAGE provider for alt match
system.switch_cpus.branchPred.tage.tageAltMatchProvider::21            0                       # TAGE provider for alt match
system.switch_cpus.branchPred.tage.tageAltMatchProvider::22      1562827                       # TAGE provider for alt match
system.switch_cpus.branchPred.tage.tageAltMatchProvider::23            0                       # TAGE provider for alt match
system.switch_cpus.branchPred.tage.tageAltMatchProvider::24      2084115                       # TAGE provider for alt match
system.switch_cpus.branchPred.tage.tageAltMatchProvider::25            0                       # TAGE provider for alt match
system.switch_cpus.branchPred.tage.tageAltMatchProvider::26      1221884                       # TAGE provider for alt match
system.switch_cpus.branchPred.tage.tageAltMatchProvider::27            0                       # TAGE provider for alt match
system.switch_cpus.branchPred.tage.tageAltMatchProvider::28       765329                       # TAGE provider for alt match
system.switch_cpus.branchPred.tage.tageAltMatchProvider::29            0                       # TAGE provider for alt match
system.switch_cpus.branchPred.tage.tageAltMatchProvider::30            0                       # TAGE provider for alt match
system.switch_cpus.branchPred.tage.tageAltMatchProviderCorrect        62690                       # Number of times TAGE Alt Match is the provider and the prediction is correct
system.switch_cpus.branchPred.tage.tageAltMatchProviderWouldHaveHit        11535                       # Number of times TAGE Longest Match is the provider, the prediction is wrong and Alt Match prediction was correct
system.switch_cpus.branchPred.tage.tageAltMatchProviderWrong        11297                       # Number of times TAGE Alt Match is the provider and the prediction is wrong
system.switch_cpus.branchPred.tage.tageBimodalProviderCorrect      1363410                       # Number of times there are no hits on the TAGE tables and the bimodal prediction is correct
system.switch_cpus.branchPred.tage.tageBimodalProviderWrong          220                       # Number of times there are no hits on the TAGE tables and the bimodal prediction is wrong
system.switch_cpus.branchPred.tage.tageLongestMatchProvider::0            0                       # TAGE provider for longest match
system.switch_cpus.branchPred.tage.tageLongestMatchProvider::1            0                       # TAGE provider for longest match
system.switch_cpus.branchPred.tage.tageLongestMatchProvider::2        10027                       # TAGE provider for longest match
system.switch_cpus.branchPred.tage.tageLongestMatchProvider::3            0                       # TAGE provider for longest match
system.switch_cpus.branchPred.tage.tageLongestMatchProvider::4       107839                       # TAGE provider for longest match
system.switch_cpus.branchPred.tage.tageLongestMatchProvider::5            0                       # TAGE provider for longest match
system.switch_cpus.branchPred.tage.tageLongestMatchProvider::6       331775                       # TAGE provider for longest match
system.switch_cpus.branchPred.tage.tageLongestMatchProvider::7        81487                       # TAGE provider for longest match
system.switch_cpus.branchPred.tage.tageLongestMatchProvider::8        95569                       # TAGE provider for longest match
system.switch_cpus.branchPred.tage.tageLongestMatchProvider::9      2065150                       # TAGE provider for longest match
system.switch_cpus.branchPred.tage.tageLongestMatchProvider::10      4700768                       # TAGE provider for longest match
system.switch_cpus.branchPred.tage.tageLongestMatchProvider::11       258959                       # TAGE provider for longest match
system.switch_cpus.branchPred.tage.tageLongestMatchProvider::12       573629                       # TAGE provider for longest match
system.switch_cpus.branchPred.tage.tageLongestMatchProvider::13      2300928                       # TAGE provider for longest match
system.switch_cpus.branchPred.tage.tageLongestMatchProvider::14      1447795                       # TAGE provider for longest match
system.switch_cpus.branchPred.tage.tageLongestMatchProvider::15      1639062                       # TAGE provider for longest match
system.switch_cpus.branchPred.tage.tageLongestMatchProvider::16      2860423                       # TAGE provider for longest match
system.switch_cpus.branchPred.tage.tageLongestMatchProvider::17       377470                       # TAGE provider for longest match
system.switch_cpus.branchPred.tage.tageLongestMatchProvider::18       869560                       # TAGE provider for longest match
system.switch_cpus.branchPred.tage.tageLongestMatchProvider::19      1003097                       # TAGE provider for longest match
system.switch_cpus.branchPred.tage.tageLongestMatchProvider::20      1415529                       # TAGE provider for longest match
system.switch_cpus.branchPred.tage.tageLongestMatchProvider::21            0                       # TAGE provider for longest match
system.switch_cpus.branchPred.tage.tageLongestMatchProvider::22      2076546                       # TAGE provider for longest match
system.switch_cpus.branchPred.tage.tageLongestMatchProvider::23            0                       # TAGE provider for longest match
system.switch_cpus.branchPred.tage.tageLongestMatchProvider::24      3074814                       # TAGE provider for longest match
system.switch_cpus.branchPred.tage.tageLongestMatchProvider::25            0                       # TAGE provider for longest match
system.switch_cpus.branchPred.tage.tageLongestMatchProvider::26      4635008                       # TAGE provider for longest match
system.switch_cpus.branchPred.tage.tageLongestMatchProvider::27            0                       # TAGE provider for longest match
system.switch_cpus.branchPred.tage.tageLongestMatchProvider::28      1447633                       # TAGE provider for longest match
system.switch_cpus.branchPred.tage.tageLongestMatchProvider::29            0                       # TAGE provider for longest match
system.switch_cpus.branchPred.tage.tageLongestMatchProvider::30      3208824                       # TAGE provider for longest match
system.switch_cpus.branchPred.tage.tageLongestMatchProviderCorrect     34369020                       # Number of times TAGE Longest Match is the provider and the prediction is correct
system.switch_cpus.branchPred.tage.tageLongestMatchProviderWouldHaveHit         7438                       # Number of times TAGE Alt Match is the provider, the prediction is wrong and Longest Match prediction was correct
system.switch_cpus.branchPred.tage.tageLongestMatchProviderWrong       138885                       # Number of times TAGE Longest Match is the provider and the prediction is wrong
system.switch_cpus.branchPred.usedRAS          326522                       # Number of times the RAS was used to get a target.
system.switch_cpus.branchPred.wormholepredictor.whPredictorCorrect        14951                       # Number of time the WH predictor is the provider and the prediction is correct
system.switch_cpus.branchPred.wormholepredictor.whPredictorWrong        16352                       # Number of time the WH predictor is the provider and the prediction is wrong
system.switch_cpus.branchPredindirectMispredicted            0                       # Number of mispredicted indirect branches.
system.switch_cpus.cc_regfile_reads         536339028                       # number of cc regfile reads
system.switch_cpus.cc_regfile_writes        537430046                       # number of cc regfile writes
system.switch_cpus.commit.amos                      0                       # Number of atomic instructions committed
system.switch_cpus.commit.branchMispredicts       239394                       # The number of times a branch was mispredicted
system.switch_cpus.commit.branches           46587468                       # Number of branches committed
system.switch_cpus.commit.bw_lim_events      85979098                       # number cycles where commit BW limit reached
system.switch_cpus.commit.commitSquashedInsts      9550444                       # The number of squashed insts skipped by commit
system.switch_cpus.commit.committedInsts   1000000601                       # Number of instructions committed
system.switch_cpus.commit.committedOps     1000995906                       # Number of ops (including micro ops) committed
system.switch_cpus.commit.committed_per_cycle::samples    334882805                       # Number of insts commited each cycle
system.switch_cpus.commit.committed_per_cycle::mean     2.989093                       # Number of insts commited each cycle
system.switch_cpus.commit.committed_per_cycle::stdev     3.202204                       # Number of insts commited each cycle
system.switch_cpus.commit.committed_per_cycle::underflows            0      0.00%      0.00% # Number of insts commited each cycle
system.switch_cpus.commit.committed_per_cycle::0     86613684     25.86%     25.86% # Number of insts commited each cycle
system.switch_cpus.commit.committed_per_cycle::1    100073118     29.88%     55.75% # Number of insts commited each cycle
system.switch_cpus.commit.committed_per_cycle::2     14522102      4.34%     60.08% # Number of insts commited each cycle
system.switch_cpus.commit.committed_per_cycle::3     22344491      6.67%     66.76% # Number of insts commited each cycle
system.switch_cpus.commit.committed_per_cycle::4     16259290      4.86%     71.61% # Number of insts commited each cycle
system.switch_cpus.commit.committed_per_cycle::5      5034073      1.50%     73.11% # Number of insts commited each cycle
system.switch_cpus.commit.committed_per_cycle::6      1593841      0.48%     73.59% # Number of insts commited each cycle
system.switch_cpus.commit.committed_per_cycle::7      2463108      0.74%     74.33% # Number of insts commited each cycle
system.switch_cpus.commit.committed_per_cycle::8     85979098     25.67%    100.00% # Number of insts commited each cycle
system.switch_cpus.commit.committed_per_cycle::overflows            0      0.00%    100.00% # Number of insts commited each cycle
system.switch_cpus.commit.committed_per_cycle::min_value            0                       # Number of insts commited each cycle
system.switch_cpus.commit.committed_per_cycle::max_value            8                       # Number of insts commited each cycle
system.switch_cpus.commit.committed_per_cycle::total    334882805                       # Number of insts commited each cycle
system.switch_cpus.commit.fp_insts                  0                       # Number of committed floating point instructions.
system.switch_cpus.commit.function_calls       246872                       # Number of function calls committed.
system.switch_cpus.commit.int_insts         952645565                       # Number of committed integer instructions.
system.switch_cpus.commit.loads             282790104                       # Number of loads committed
system.switch_cpus.commit.membars                   0                       # Number of memory barriers committed
system.switch_cpus.commit.op_class_0::No_OpClass        78364      0.01%      0.01% # Class of committed instruction
system.switch_cpus.commit.op_class_0::IntAlu    567052732     56.65%     56.66% # Class of committed instruction
system.switch_cpus.commit.op_class_0::IntMult       393024      0.04%     56.70% # Class of committed instruction
system.switch_cpus.commit.op_class_0::IntDiv            0      0.00%     56.70% # Class of committed instruction
system.switch_cpus.commit.op_class_0::FloatAdd       500435      0.05%     56.75% # Class of committed instruction
system.switch_cpus.commit.op_class_0::FloatCmp       500360      0.05%     56.80% # Class of committed instruction
system.switch_cpus.commit.op_class_0::FloatCvt       100796      0.01%     56.81% # Class of committed instruction
system.switch_cpus.commit.op_class_0::FloatMult         1122      0.00%     56.81% # Class of committed instruction
system.switch_cpus.commit.op_class_0::FloatMultAcc          636      0.00%     56.81% # Class of committed instruction
system.switch_cpus.commit.op_class_0::FloatDiv        98406      0.01%     56.82% # Class of committed instruction
system.switch_cpus.commit.op_class_0::FloatMisc         3182      0.00%     56.82% # Class of committed instruction
system.switch_cpus.commit.op_class_0::FloatSqrt            0      0.00%     56.82% # Class of committed instruction
system.switch_cpus.commit.op_class_0::SimdAdd       235092      0.02%     56.84% # Class of committed instruction
system.switch_cpus.commit.op_class_0::SimdAddAcc            0      0.00%     56.84% # Class of committed instruction
system.switch_cpus.commit.op_class_0::SimdAlu       558561      0.06%     56.90% # Class of committed instruction
system.switch_cpus.commit.op_class_0::SimdCmp       313456      0.03%     56.93% # Class of committed instruction
system.switch_cpus.commit.op_class_0::SimdCvt        98256      0.01%     56.94% # Class of committed instruction
system.switch_cpus.commit.op_class_0::SimdMisc       254609      0.03%     56.96% # Class of committed instruction
system.switch_cpus.commit.op_class_0::SimdMult            0      0.00%     56.96% # Class of committed instruction
system.switch_cpus.commit.op_class_0::SimdMultAcc            0      0.00%     56.96% # Class of committed instruction
system.switch_cpus.commit.op_class_0::SimdShift            0      0.00%     56.96% # Class of committed instruction
system.switch_cpus.commit.op_class_0::SimdShiftAcc            0      0.00%     56.96% # Class of committed instruction
system.switch_cpus.commit.op_class_0::SimdDiv            0      0.00%     56.96% # Class of committed instruction
system.switch_cpus.commit.op_class_0::SimdSqrt            0      0.00%     56.96% # Class of committed instruction
system.switch_cpus.commit.op_class_0::SimdFloatAdd            0      0.00%     56.96% # Class of committed instruction
system.switch_cpus.commit.op_class_0::SimdFloatAlu            0      0.00%     56.96% # Class of committed instruction
system.switch_cpus.commit.op_class_0::SimdFloatCmp            0      0.00%     56.96% # Class of committed instruction
system.switch_cpus.commit.op_class_0::SimdFloatCvt            0      0.00%     56.96% # Class of committed instruction
system.switch_cpus.commit.op_class_0::SimdFloatDiv            0      0.00%     56.96% # Class of committed instruction
system.switch_cpus.commit.op_class_0::SimdFloatMisc            0      0.00%     56.96% # Class of committed instruction
system.switch_cpus.commit.op_class_0::SimdFloatMult            0      0.00%     56.96% # Class of committed instruction
system.switch_cpus.commit.op_class_0::SimdFloatMultAcc            0      0.00%     56.96% # Class of committed instruction
system.switch_cpus.commit.op_class_0::SimdFloatSqrt            0      0.00%     56.96% # Class of committed instruction
system.switch_cpus.commit.op_class_0::SimdReduceAdd            0      0.00%     56.96% # Class of committed instruction
system.switch_cpus.commit.op_class_0::SimdReduceAlu            0      0.00%     56.96% # Class of committed instruction
system.switch_cpus.commit.op_class_0::SimdReduceCmp            0      0.00%     56.96% # Class of committed instruction
system.switch_cpus.commit.op_class_0::SimdFloatReduceAdd            0      0.00%     56.96% # Class of committed instruction
system.switch_cpus.commit.op_class_0::SimdFloatReduceCmp            0      0.00%     56.96% # Class of committed instruction
system.switch_cpus.commit.op_class_0::SimdAes            0      0.00%     56.96% # Class of committed instruction
system.switch_cpus.commit.op_class_0::SimdAesMix            0      0.00%     56.96% # Class of committed instruction
system.switch_cpus.commit.op_class_0::SimdSha1Hash            0      0.00%     56.96% # Class of committed instruction
system.switch_cpus.commit.op_class_0::SimdSha1Hash2            0      0.00%     56.96% # Class of committed instruction
system.switch_cpus.commit.op_class_0::SimdSha256Hash            0      0.00%     56.96% # Class of committed instruction
system.switch_cpus.commit.op_class_0::SimdSha256Hash2            0      0.00%     56.96% # Class of committed instruction
system.switch_cpus.commit.op_class_0::SimdShaSigma2            0      0.00%     56.96% # Class of committed instruction
system.switch_cpus.commit.op_class_0::SimdShaSigma3            0      0.00%     56.96% # Class of committed instruction
system.switch_cpus.commit.op_class_0::SimdPredAlu            0      0.00%     56.96% # Class of committed instruction
system.switch_cpus.commit.op_class_0::MemRead    282790104     28.25%     85.21% # Class of committed instruction
system.switch_cpus.commit.op_class_0::MemWrite    148016771     14.79%    100.00% # Class of committed instruction
system.switch_cpus.commit.op_class_0::FloatMemRead            0      0.00%    100.00% # Class of committed instruction
system.switch_cpus.commit.op_class_0::FloatMemWrite            0      0.00%    100.00% # Class of committed instruction
system.switch_cpus.commit.op_class_0::IprAccess            0      0.00%    100.00% # Class of committed instruction
system.switch_cpus.commit.op_class_0::InstPrefetch            0      0.00%    100.00% # Class of committed instruction
system.switch_cpus.commit.op_class_0::total   1000995906                       # Class of committed instruction
system.switch_cpus.commit.refs              430806875                       # Number of memory references committed
system.switch_cpus.commit.swp_count                 0                       # Number of s/w prefetches committed
system.switch_cpus.commit.vec_insts           3598042                       # Number of committed Vector instructions.
system.switch_cpus.committedInsts          1000000005                       # Number of Instructions Simulated
system.switch_cpus.committedOps            1000995310                       # Number of Ops (including micro ops) Simulated
system.switch_cpus.cpi                       0.336277                       # CPI: Cycles Per Instruction
system.switch_cpus.cpi_total                 0.336277                       # CPI: Total CPI of All Threads
system.switch_cpus.decode.BlockedCycles      91126419                       # Number of cycles decode is blocked
system.switch_cpus.decode.BranchMispred           369                       # Number of times decode detected a branch misprediction
system.switch_cpus.decode.BranchResolved     31686282                       # Number of times decode resolved a branch
system.switch_cpus.decode.DecodedInsts     1012998521                       # Number of instructions handled by decode
system.switch_cpus.decode.IdleCycles         84959326                       # Number of cycles decode is idle
system.switch_cpus.decode.RunCycles         144824675                       # Number of cycles decode is running
system.switch_cpus.decode.SquashCycles         248171                       # Number of cycles decode is squashing
system.switch_cpus.decode.SquashedInsts          1518                       # Number of squashed instructions handled by decode
system.switch_cpus.decode.UnblockCycles      15118495                       # Number of cycles decode is unblocking
system.switch_cpus.dtb.accesses                     0                       # DTB accesses
system.switch_cpus.dtb.align_faults                 0                       # Number of TLB faults due to alignment restrictions
system.switch_cpus.dtb.domain_faults                0                       # Number of TLB faults due to domain restrictions
system.switch_cpus.dtb.flush_entries                0                       # Number of entries that have been flushed from TLB
system.switch_cpus.dtb.flush_tlb                    0                       # Number of times complete TLB was flushed
system.switch_cpus.dtb.flush_tlb_asid               0                       # Number of times TLB was flushed by ASID
system.switch_cpus.dtb.flush_tlb_mva                0                       # Number of times TLB was flushed by MVA
system.switch_cpus.dtb.flush_tlb_mva_asid            0                       # Number of times TLB was flushed by MVA & ASID
system.switch_cpus.dtb.hits                         0                       # DTB hits
system.switch_cpus.dtb.inst_accesses                0                       # ITB inst accesses
system.switch_cpus.dtb.inst_hits                    0                       # ITB inst hits
system.switch_cpus.dtb.inst_misses                  0                       # ITB inst misses
system.switch_cpus.dtb.misses                       0                       # DTB misses
system.switch_cpus.dtb.perms_faults                 0                       # Number of TLB faults due to permissions restrictions
system.switch_cpus.dtb.prefetch_faults              0                       # Number of TLB faults due to prefetch
system.switch_cpus.dtb.read_accesses                0                       # DTB read accesses
system.switch_cpus.dtb.read_hits                    0                       # DTB read hits
system.switch_cpus.dtb.read_misses                  0                       # DTB read misses
system.switch_cpus.dtb.stage2_mmu.stage2_tlb.accesses            0                       # DTB accesses
system.switch_cpus.dtb.stage2_mmu.stage2_tlb.align_faults            0                       # Number of TLB faults due to alignment restrictions
system.switch_cpus.dtb.stage2_mmu.stage2_tlb.domain_faults            0                       # Number of TLB faults due to domain restrictions
system.switch_cpus.dtb.stage2_mmu.stage2_tlb.flush_entries            0                       # Number of entries that have been flushed from TLB
system.switch_cpus.dtb.stage2_mmu.stage2_tlb.flush_tlb            0                       # Number of times complete TLB was flushed
system.switch_cpus.dtb.stage2_mmu.stage2_tlb.flush_tlb_asid            0                       # Number of times TLB was flushed by ASID
system.switch_cpus.dtb.stage2_mmu.stage2_tlb.flush_tlb_mva            0                       # Number of times TLB was flushed by MVA
system.switch_cpus.dtb.stage2_mmu.stage2_tlb.flush_tlb_mva_asid            0                       # Number of times TLB was flushed by MVA & ASID
system.switch_cpus.dtb.stage2_mmu.stage2_tlb.hits            0                       # DTB hits
system.switch_cpus.dtb.stage2_mmu.stage2_tlb.inst_accesses            0                       # ITB inst accesses
system.switch_cpus.dtb.stage2_mmu.stage2_tlb.inst_hits            0                       # ITB inst hits
system.switch_cpus.dtb.stage2_mmu.stage2_tlb.inst_misses            0                       # ITB inst misses
system.switch_cpus.dtb.stage2_mmu.stage2_tlb.misses            0                       # DTB misses
system.switch_cpus.dtb.stage2_mmu.stage2_tlb.perms_faults            0                       # Number of TLB faults due to permissions restrictions
system.switch_cpus.dtb.stage2_mmu.stage2_tlb.prefetch_faults            0                       # Number of TLB faults due to prefetch
system.switch_cpus.dtb.stage2_mmu.stage2_tlb.read_accesses            0                       # DTB read accesses
system.switch_cpus.dtb.stage2_mmu.stage2_tlb.read_hits            0                       # DTB read hits
system.switch_cpus.dtb.stage2_mmu.stage2_tlb.read_misses            0                       # DTB read misses
system.switch_cpus.dtb.stage2_mmu.stage2_tlb.walker.walkRequestOrigin_Requested::Data            0                       # Table walker requests started/completed, data/inst
system.switch_cpus.dtb.stage2_mmu.stage2_tlb.walker.walkRequestOrigin_Requested::Inst            0                       # Table walker requests started/completed, data/inst
system.switch_cpus.dtb.stage2_mmu.stage2_tlb.walker.walkRequestOrigin_Requested::total            0                       # Table walker requests started/completed, data/inst
system.switch_cpus.dtb.stage2_mmu.stage2_tlb.walker.walkRequestOrigin_Completed::Data            0                       # Table walker requests started/completed, data/inst
system.switch_cpus.dtb.stage2_mmu.stage2_tlb.walker.walkRequestOrigin_Completed::Inst            0                       # Table walker requests started/completed, data/inst
system.switch_cpus.dtb.stage2_mmu.stage2_tlb.walker.walkRequestOrigin_Completed::total            0                       # Table walker requests started/completed, data/inst
system.switch_cpus.dtb.stage2_mmu.stage2_tlb.walker.walkRequestOrigin::total            0                       # Table walker requests started/completed, data/inst
system.switch_cpus.dtb.stage2_mmu.stage2_tlb.walker.walks            0                       # Table walker walks requested
system.switch_cpus.dtb.stage2_mmu.stage2_tlb.write_accesses            0                       # DTB write accesses
system.switch_cpus.dtb.stage2_mmu.stage2_tlb.write_hits            0                       # DTB write hits
system.switch_cpus.dtb.stage2_mmu.stage2_tlb.write_misses            0                       # DTB write misses
system.switch_cpus.dtb.walker.walkRequestOrigin_Requested::Data            0                       # Table walker requests started/completed, data/inst
system.switch_cpus.dtb.walker.walkRequestOrigin_Requested::Inst            0                       # Table walker requests started/completed, data/inst
system.switch_cpus.dtb.walker.walkRequestOrigin_Requested::total            0                       # Table walker requests started/completed, data/inst
system.switch_cpus.dtb.walker.walkRequestOrigin_Completed::Data            0                       # Table walker requests started/completed, data/inst
system.switch_cpus.dtb.walker.walkRequestOrigin_Completed::Inst            0                       # Table walker requests started/completed, data/inst
system.switch_cpus.dtb.walker.walkRequestOrigin_Completed::total            0                       # Table walker requests started/completed, data/inst
system.switch_cpus.dtb.walker.walkRequestOrigin::total            0                       # Table walker requests started/completed, data/inst
system.switch_cpus.dtb.walker.walks                 0                       # Table walker walks requested
system.switch_cpus.dtb.write_accesses               0                       # DTB write accesses
system.switch_cpus.dtb.write_hits                   0                       # DTB write hits
system.switch_cpus.dtb.write_misses                 0                       # DTB write misses
system.switch_cpus.fetch.Branches            48982780                       # Number of branches that fetch encountered
system.switch_cpus.fetch.CacheLines         105454751                       # Number of cache lines fetched
system.switch_cpus.fetch.Cycles             230400175                       # Number of cycles fetch has run and was not squashing or blocked
system.switch_cpus.fetch.IcacheSquashes         67142                       # Number of outstanding Icache misses that were squashed
system.switch_cpus.fetch.IcacheWaitRetryStallCycles            2                       # Number of stall cycles due to full MSHR
system.switch_cpus.fetch.Insts             1014311536                       # Number of instructions fetch has processed
system.switch_cpus.fetch.MiscStallCycles            5                       # Number of cycles fetch has spent waiting on interrupts, or bad addresses, or out of MSHRs
system.switch_cpus.fetch.PendingTrapStallCycles           24                       # Number of stall cycles due to pending traps
system.switch_cpus.fetch.SquashCycles          497076                       # Number of cycles fetch has spent squashing
system.switch_cpus.fetch.branchRate          0.145662                       # Number of branch fetches per cycle
system.switch_cpus.fetch.icacheStallCycles    105628351                       # Number of cycles fetch is stalled on an Icache miss
system.switch_cpus.fetch.predictedBranches     32230049                       # Number of branches that fetch has predicted taken
system.switch_cpus.fetch.rate                3.016297                       # Number of inst fetches per cycle
system.switch_cpus.fetch.rateDist::samples    336277095                       # Number of instructions fetched each cycle (Total)
system.switch_cpus.fetch.rateDist::mean      3.019927                       # Number of instructions fetched each cycle (Total)
system.switch_cpus.fetch.rateDist::stdev     3.561231                       # Number of instructions fetched each cycle (Total)
system.switch_cpus.fetch.rateDist::underflows            0      0.00%      0.00% # Number of instructions fetched each cycle (Total)
system.switch_cpus.fetch.rateDist::0        164319430     48.86%     48.86% # Number of instructions fetched each cycle (Total)
system.switch_cpus.fetch.rateDist::1         15874253      4.72%     53.58% # Number of instructions fetched each cycle (Total)
system.switch_cpus.fetch.rateDist::2         31523576      9.37%     62.96% # Number of instructions fetched each cycle (Total)
system.switch_cpus.fetch.rateDist::3          2824450      0.84%     63.80% # Number of instructions fetched each cycle (Total)
system.switch_cpus.fetch.rateDist::4           850835      0.25%     64.05% # Number of instructions fetched each cycle (Total)
system.switch_cpus.fetch.rateDist::5          2633685      0.78%     64.84% # Number of instructions fetched each cycle (Total)
system.switch_cpus.fetch.rateDist::6         16670412      4.96%     69.79% # Number of instructions fetched each cycle (Total)
system.switch_cpus.fetch.rateDist::7          1100278      0.33%     70.12% # Number of instructions fetched each cycle (Total)
system.switch_cpus.fetch.rateDist::8        100480176     29.88%    100.00% # Number of instructions fetched each cycle (Total)
system.switch_cpus.fetch.rateDist::overflows            0      0.00%    100.00% # Number of instructions fetched each cycle (Total)
system.switch_cpus.fetch.rateDist::min_value            0                       # Number of instructions fetched each cycle (Total)
system.switch_cpus.fetch.rateDist::max_value            8                       # Number of instructions fetched each cycle (Total)
system.switch_cpus.fetch.rateDist::total    336277095                       # Number of instructions fetched each cycle (Total)
system.switch_cpus.idleCycles                       8                       # Total number of cycles that the CPU has spent unscheduled due to idling
system.switch_cpus.iew.branchMispredicts       334831                       # Number of branch mispredicts detected at execute
system.switch_cpus.iew.exec_branches         47657617                       # Number of branches executed
system.switch_cpus.iew.exec_nop                   739                       # number of nop insts executed
system.switch_cpus.iew.exec_rate             3.006657                       # Inst execution rate
system.switch_cpus.iew.exec_refs            436195852                       # number of memory reference insts executed
system.switch_cpus.iew.exec_stores          148111574                       # Number of stores executed
system.switch_cpus.iew.exec_swp                     0                       # number of swp insts executed
system.switch_cpus.iew.iewBlockCycles         5674118                       # Number of cycles IEW is blocking
system.switch_cpus.iew.iewDispLoadInsts     284625181                       # Number of dispatched load instructions
system.switch_cpus.iew.iewDispNonSpecInsts            0                       # Number of dispatched non-speculative instructions
system.switch_cpus.iew.iewDispSquashedInsts        57714                       # Number of squashed instructions skipped by dispatch
system.switch_cpus.iew.iewDispStoreInsts    148558036                       # Number of dispatched store instructions
system.switch_cpus.iew.iewDispatchedInsts   1010544857                       # Number of instructions dispatched to IQ
system.switch_cpus.iew.iewExecLoadInsts     288084278                       # Number of load instructions executed
system.switch_cpus.iew.iewExecSquashedInsts       408806                       # Number of squashed instructions skipped in execute
system.switch_cpus.iew.iewExecutedInsts    1011069752                       # Number of executed instructions
system.switch_cpus.iew.iewIQFullEvents         944478                       # Number of times the IQ has become full, causing a stall
system.switch_cpus.iew.iewIdleCycles                0                       # Number of cycles IEW is idle
system.switch_cpus.iew.iewLSQFullEvents       4899452                       # Number of times the LSQ has become full, causing a stall
system.switch_cpus.iew.iewSquashCycles         248171                       # Number of cycles IEW is squashing
system.switch_cpus.iew.iewUnblockCycles       6097805                       # Number of cycles IEW is unblocking
system.switch_cpus.iew.lsq.thread0.blockedLoads            0                       # Number of blocked loads due to partial load-store forwarding
system.switch_cpus.iew.lsq.thread0.cacheBlocked       474138                       # Number of times an access to memory failed due to the cache being blocked
system.switch_cpus.iew.lsq.thread0.forwLoads     16702454                       # Number of loads that had data forwarded from stores
system.switch_cpus.iew.lsq.thread0.ignoredResponses           61                       # Number of memory responses ignored because the instruction is squashed
system.switch_cpus.iew.lsq.thread0.invAddrLoads            0                       # Number of loads ignored due to an invalid address
system.switch_cpus.iew.lsq.thread0.invAddrSwpfs            0                       # Number of software prefetches ignored due to an invalid address
system.switch_cpus.iew.lsq.thread0.memOrderViolation         9577                       # Number of memory ordering violations
system.switch_cpus.iew.lsq.thread0.rescheduledLoads        59645                       # Number of loads that were rescheduled
system.switch_cpus.iew.lsq.thread0.squashedLoads      1835056                       # Number of loads squashed
system.switch_cpus.iew.lsq.thread0.squashedStores       541253                       # Number of stores squashed
system.switch_cpus.iew.memOrderViolationEvents         9577                       # Number of memory order violations
system.switch_cpus.iew.predictedNotTakenIncorrect       139228                       # Number of branches that were predicted not taken incorrectly
system.switch_cpus.iew.predictedTakenIncorrect       195603                       # Number of branches that were predicted taken incorrectly
system.switch_cpus.iew.wb_consumers        1481093153                       # num instructions consuming a value
system.switch_cpus.iew.wb_count            1006787861                       # cumulative count of insts written-back
system.switch_cpus.iew.wb_fanout             0.534167                       # average fanout of values written-back
system.switch_cpus.iew.wb_producers         791150820                       # num instructions producing a value
system.switch_cpus.iew.wb_rate               2.993923                       # insts written-back per cycle
system.switch_cpus.iew.wb_sent             1006946346                       # cumulative count of insts sent to commit
system.switch_cpus.int_regfile_reads       2013614463                       # number of integer regfile reads
system.switch_cpus.int_regfile_writes       806824974                       # number of integer regfile writes
system.switch_cpus.ipc                       2.973738                       # IPC: Instructions Per Cycle
system.switch_cpus.ipc_total                 2.973738                       # IPC: Total IPC of All Threads
system.switch_cpus.iq.FU_type_0::No_OpClass        95525      0.01%      0.01% # Type of FU issued
system.switch_cpus.iq.FU_type_0::IntAlu     570868467     56.44%     56.45% # Type of FU issued
system.switch_cpus.iq.FU_type_0::IntMult       421126      0.04%     56.49% # Type of FU issued
system.switch_cpus.iq.FU_type_0::IntDiv             0      0.00%     56.49% # Type of FU issued
system.switch_cpus.iq.FU_type_0::FloatAdd       870445      0.09%     56.58% # Type of FU issued
system.switch_cpus.iq.FU_type_0::FloatCmp       791660      0.08%     56.65% # Type of FU issued
system.switch_cpus.iq.FU_type_0::FloatCvt       106655      0.01%     56.66% # Type of FU issued
system.switch_cpus.iq.FU_type_0::FloatMult         1200      0.00%     56.67% # Type of FU issued
system.switch_cpus.iq.FU_type_0::FloatMultAcc          650      0.00%     56.67% # Type of FU issued
system.switch_cpus.iq.FU_type_0::FloatDiv       107181      0.01%     56.68% # Type of FU issued
system.switch_cpus.iq.FU_type_0::FloatMisc         4221      0.00%     56.68% # Type of FU issued
system.switch_cpus.iq.FU_type_0::FloatSqrt            0      0.00%     56.68% # Type of FU issued
system.switch_cpus.iq.FU_type_0::SimdAdd       286563      0.03%     56.70% # Type of FU issued
system.switch_cpus.iq.FU_type_0::SimdAddAcc            0      0.00%     56.70% # Type of FU issued
system.switch_cpus.iq.FU_type_0::SimdAlu       712974      0.07%     56.77% # Type of FU issued
system.switch_cpus.iq.FU_type_0::SimdCmp       382084      0.04%     56.81% # Type of FU issued
system.switch_cpus.iq.FU_type_0::SimdCvt       107141      0.01%     56.82% # Type of FU issued
system.switch_cpus.iq.FU_type_0::SimdMisc       297627      0.03%     56.85% # Type of FU issued
system.switch_cpus.iq.FU_type_0::SimdMult            0      0.00%     56.85% # Type of FU issued
system.switch_cpus.iq.FU_type_0::SimdMultAcc            0      0.00%     56.85% # Type of FU issued
system.switch_cpus.iq.FU_type_0::SimdShift            0      0.00%     56.85% # Type of FU issued
system.switch_cpus.iq.FU_type_0::SimdShiftAcc            0      0.00%     56.85% # Type of FU issued
system.switch_cpus.iq.FU_type_0::SimdDiv            0      0.00%     56.85% # Type of FU issued
system.switch_cpus.iq.FU_type_0::SimdSqrt            0      0.00%     56.85% # Type of FU issued
system.switch_cpus.iq.FU_type_0::SimdFloatAdd            0      0.00%     56.85% # Type of FU issued
system.switch_cpus.iq.FU_type_0::SimdFloatAlu            0      0.00%     56.85% # Type of FU issued
system.switch_cpus.iq.FU_type_0::SimdFloatCmp            0      0.00%     56.85% # Type of FU issued
system.switch_cpus.iq.FU_type_0::SimdFloatCvt            0      0.00%     56.85% # Type of FU issued
system.switch_cpus.iq.FU_type_0::SimdFloatDiv            0      0.00%     56.85% # Type of FU issued
system.switch_cpus.iq.FU_type_0::SimdFloatMisc            0      0.00%     56.85% # Type of FU issued
system.switch_cpus.iq.FU_type_0::SimdFloatMult            0      0.00%     56.85% # Type of FU issued
system.switch_cpus.iq.FU_type_0::SimdFloatMultAcc            0      0.00%     56.85% # Type of FU issued
system.switch_cpus.iq.FU_type_0::SimdFloatSqrt            0      0.00%     56.85% # Type of FU issued
system.switch_cpus.iq.FU_type_0::SimdReduceAdd            0      0.00%     56.85% # Type of FU issued
system.switch_cpus.iq.FU_type_0::SimdReduceAlu            0      0.00%     56.85% # Type of FU issued
system.switch_cpus.iq.FU_type_0::SimdReduceCmp            0      0.00%     56.85% # Type of FU issued
system.switch_cpus.iq.FU_type_0::SimdFloatReduceAdd            0      0.00%     56.85% # Type of FU issued
system.switch_cpus.iq.FU_type_0::SimdFloatReduceCmp            0      0.00%     56.85% # Type of FU issued
system.switch_cpus.iq.FU_type_0::SimdAes            0      0.00%     56.85% # Type of FU issued
system.switch_cpus.iq.FU_type_0::SimdAesMix            0      0.00%     56.85% # Type of FU issued
system.switch_cpus.iq.FU_type_0::SimdSha1Hash            0      0.00%     56.85% # Type of FU issued
system.switch_cpus.iq.FU_type_0::SimdSha1Hash2            0      0.00%     56.85% # Type of FU issued
system.switch_cpus.iq.FU_type_0::SimdSha256Hash            0      0.00%     56.85% # Type of FU issued
system.switch_cpus.iq.FU_type_0::SimdSha256Hash2            0      0.00%     56.85% # Type of FU issued
system.switch_cpus.iq.FU_type_0::SimdShaSigma2            0      0.00%     56.85% # Type of FU issued
system.switch_cpus.iq.FU_type_0::SimdShaSigma3            0      0.00%     56.85% # Type of FU issued
system.switch_cpus.iq.FU_type_0::SimdPredAlu            0      0.00%     56.85% # Type of FU issued
system.switch_cpus.iq.FU_type_0::MemRead    288308509     28.50%     85.36% # Type of FU issued
system.switch_cpus.iq.FU_type_0::MemWrite    148116535     14.64%    100.00% # Type of FU issued
system.switch_cpus.iq.FU_type_0::FloatMemRead            0      0.00%    100.00% # Type of FU issued
system.switch_cpus.iq.FU_type_0::FloatMemWrite            0      0.00%    100.00% # Type of FU issued
system.switch_cpus.iq.FU_type_0::IprAccess            0      0.00%    100.00% # Type of FU issued
system.switch_cpus.iq.FU_type_0::InstPrefetch            0      0.00%    100.00% # Type of FU issued
system.switch_cpus.iq.FU_type_0::total     1011478563                       # Type of FU issued
system.switch_cpus.iq.fp_alu_accesses               0                       # Number of floating point alu accesses
system.switch_cpus.iq.fp_inst_queue_reads            0                       # Number of floating instruction queue reads
system.switch_cpus.iq.fp_inst_queue_wakeup_accesses            0                       # Number of floating instruction queue wakeup accesses
system.switch_cpus.iq.fp_inst_queue_writes            0                       # Number of floating instruction queue writes
system.switch_cpus.iq.fu_busy_cnt             5091023                       # FU busy when requested
system.switch_cpus.iq.fu_busy_rate           0.005033                       # FU busy rate (busy events/executed inst)
system.switch_cpus.iq.fu_full::No_OpClass            0      0.00%      0.00% # attempts to use FU when none available
system.switch_cpus.iq.fu_full::IntAlu           56026      1.10%      1.10% # attempts to use FU when none available
system.switch_cpus.iq.fu_full::IntMult              1      0.00%      1.10% # attempts to use FU when none available
system.switch_cpus.iq.fu_full::IntDiv               0      0.00%      1.10% # attempts to use FU when none available
system.switch_cpus.iq.fu_full::FloatAdd         74965      1.47%      2.57% # attempts to use FU when none available
system.switch_cpus.iq.fu_full::FloatCmp         97308      1.91%      4.48% # attempts to use FU when none available
system.switch_cpus.iq.fu_full::FloatCvt             0      0.00%      4.48% # attempts to use FU when none available
system.switch_cpus.iq.fu_full::FloatMult          150      0.00%      4.49% # attempts to use FU when none available
system.switch_cpus.iq.fu_full::FloatMultAcc            5      0.00%      4.49% # attempts to use FU when none available
system.switch_cpus.iq.fu_full::FloatDiv             0      0.00%      4.49% # attempts to use FU when none available
system.switch_cpus.iq.fu_full::FloatMisc          217      0.00%      4.49% # attempts to use FU when none available
system.switch_cpus.iq.fu_full::FloatSqrt            0      0.00%      4.49% # attempts to use FU when none available
system.switch_cpus.iq.fu_full::SimdAdd              0      0.00%      4.49% # attempts to use FU when none available
system.switch_cpus.iq.fu_full::SimdAddAcc            0      0.00%      4.49% # attempts to use FU when none available
system.switch_cpus.iq.fu_full::SimdAlu          89788      1.76%      6.26% # attempts to use FU when none available
system.switch_cpus.iq.fu_full::SimdCmp          85828      1.69%      7.94% # attempts to use FU when none available
system.switch_cpus.iq.fu_full::SimdCvt              0      0.00%      7.94% # attempts to use FU when none available
system.switch_cpus.iq.fu_full::SimdMisc             0      0.00%      7.94% # attempts to use FU when none available
system.switch_cpus.iq.fu_full::SimdMult             0      0.00%      7.94% # attempts to use FU when none available
system.switch_cpus.iq.fu_full::SimdMultAcc            0      0.00%      7.94% # attempts to use FU when none available
system.switch_cpus.iq.fu_full::SimdShift            0      0.00%      7.94% # attempts to use FU when none available
system.switch_cpus.iq.fu_full::SimdShiftAcc            0      0.00%      7.94% # attempts to use FU when none available
system.switch_cpus.iq.fu_full::SimdDiv              0      0.00%      7.94% # attempts to use FU when none available
system.switch_cpus.iq.fu_full::SimdSqrt             0      0.00%      7.94% # attempts to use FU when none available
system.switch_cpus.iq.fu_full::SimdFloatAdd            0      0.00%      7.94% # attempts to use FU when none available
system.switch_cpus.iq.fu_full::SimdFloatAlu            0      0.00%      7.94% # attempts to use FU when none available
system.switch_cpus.iq.fu_full::SimdFloatCmp            0      0.00%      7.94% # attempts to use FU when none available
system.switch_cpus.iq.fu_full::SimdFloatCvt            0      0.00%      7.94% # attempts to use FU when none available
system.switch_cpus.iq.fu_full::SimdFloatDiv            0      0.00%      7.94% # attempts to use FU when none available
system.switch_cpus.iq.fu_full::SimdFloatMisc            0      0.00%      7.94% # attempts to use FU when none available
system.switch_cpus.iq.fu_full::SimdFloatMult            0      0.00%      7.94% # attempts to use FU when none available
system.switch_cpus.iq.fu_full::SimdFloatMultAcc            0      0.00%      7.94% # attempts to use FU when none available
system.switch_cpus.iq.fu_full::SimdFloatSqrt            0      0.00%      7.94% # attempts to use FU when none available
system.switch_cpus.iq.fu_full::SimdReduceAdd            0      0.00%      7.94% # attempts to use FU when none available
system.switch_cpus.iq.fu_full::SimdReduceAlu            0      0.00%      7.94% # attempts to use FU when none available
system.switch_cpus.iq.fu_full::SimdReduceCmp            0      0.00%      7.94% # attempts to use FU when none available
system.switch_cpus.iq.fu_full::SimdFloatReduceAdd            0      0.00%      7.94% # attempts to use FU when none available
system.switch_cpus.iq.fu_full::SimdFloatReduceCmp            0      0.00%      7.94% # attempts to use FU when none available
system.switch_cpus.iq.fu_full::SimdAes              0      0.00%      7.94% # attempts to use FU when none available
system.switch_cpus.iq.fu_full::SimdAesMix            0      0.00%      7.94% # attempts to use FU when none available
system.switch_cpus.iq.fu_full::SimdSha1Hash            0      0.00%      7.94% # attempts to use FU when none available
system.switch_cpus.iq.fu_full::SimdSha1Hash2            0      0.00%      7.94% # attempts to use FU when none available
system.switch_cpus.iq.fu_full::SimdSha256Hash            0      0.00%      7.94% # attempts to use FU when none available
system.switch_cpus.iq.fu_full::SimdSha256Hash2            0      0.00%      7.94% # attempts to use FU when none available
system.switch_cpus.iq.fu_full::SimdShaSigma2            0      0.00%      7.94% # attempts to use FU when none available
system.switch_cpus.iq.fu_full::SimdShaSigma3            0      0.00%      7.94% # attempts to use FU when none available
system.switch_cpus.iq.fu_full::SimdPredAlu            0      0.00%      7.94% # attempts to use FU when none available
system.switch_cpus.iq.fu_full::MemRead        4681064     91.95%     99.89% # attempts to use FU when none available
system.switch_cpus.iq.fu_full::MemWrite          5671      0.11%    100.00% # attempts to use FU when none available
system.switch_cpus.iq.fu_full::FloatMemRead            0      0.00%    100.00% # attempts to use FU when none available
system.switch_cpus.iq.fu_full::FloatMemWrite            0      0.00%    100.00% # attempts to use FU when none available
system.switch_cpus.iq.fu_full::IprAccess            0      0.00%    100.00% # attempts to use FU when none available
system.switch_cpus.iq.fu_full::InstPrefetch            0      0.00%    100.00% # attempts to use FU when none available
system.switch_cpus.iq.int_alu_accesses     1010908659                       # Number of integer alu accesses
system.switch_cpus.iq.int_inst_queue_reads   2353362629                       # Number of integer instruction queue reads
system.switch_cpus.iq.int_inst_queue_wakeup_accesses   1001537515                       # Number of integer instruction queue wakeup accesses
system.switch_cpus.iq.int_inst_queue_writes   1011719898                       # Number of integer instruction queue writes
system.switch_cpus.iq.iqInstsAdded         1010544118                       # Number of instructions added to the IQ (excludes non-spec)
system.switch_cpus.iq.iqInstsIssued        1011478563                       # Number of instructions issued
system.switch_cpus.iq.iqSquashedInstsExamined      9548734                       # Number of squashed instructions iterated over during squash; mainly for profiling
system.switch_cpus.iq.iqSquashedInstsIssued        10980                       # Number of squashed instructions issued
system.switch_cpus.iq.iqSquashedOperandsExamined     10524733                       # Number of squashed operands that are examined and possibly removed from graph
[...]
system.cpu.icache.tags.data_accesses       2210911453                       # Number of data accesses
system.cpu.icache.tags.power_state.pwrStateResidencyTicks::UNDEFINED 669592361000                       # Cumulative time (in ticks) in various power states
system.cpu.dtb.walker.power_state.pwrStateResidencyTicks::UNDEFINED 669592361000                       # Cumulative time (in ticks) in various power states
system.cpu.dtb.stage2_mmu.stage2_tlb.walker.power_state.pwrStateResidencyTicks::UNDEFINED 669592361000                       # Cumulative time (in ticks) in various power states
system.cpu.itb.walker.power_state.pwrStateResidencyTicks::UNDEFINED 669592361000                       # Cumulative time (in ticks) in various power states
system.cpu.itb.stage2_mmu.stage2_tlb.walker.power_state.pwrStateResidencyTicks::UNDEFINED 669592361000                       # Cumulative time (in ticks) in various power states
system.cpu.dcache.demand_hits::.cpu.data    408481577                       # number of demand (read+write) hits
system.cpu.dcache.demand_hits::.switch_cpus.data    384643872                       # number of demand (read+write) hits
system.cpu.dcache.demand_hits::total        793125449                       # number of demand (read+write) hits
system.cpu.dcache.overall_hits::.cpu.data    408482711                       # number of overall hits
system.cpu.dcache.overall_hits::.switch_cpus.data    384643872                       # number of overall hits
system.cpu.dcache.overall_hits::total       793126583                       # number of overall hits
system.cpu.dcache.demand_misses::.cpu.data     21889051                       # number of demand (read+write) misses
system.cpu.dcache.demand_misses::.switch_cpus.data     30977267                       # number of demand (read+write) misses
system.cpu.dcache.demand_misses::total       52866318                       # number of demand (read+write) misses
system.cpu.dcache.overall_misses::.cpu.data     21889057                       # number of overall misses
system.cpu.dcache.overall_misses::.switch_cpus.data     30977267                       # number of overall misses
system.cpu.dcache.overall_misses::total      52866324                       # number of overall misses
system.cpu.dcache.demand_miss_latency::.switch_cpus.data 408034522147                       # number of demand (read+write) miss cycles
system.cpu.dcache.demand_miss_latency::total 408034522147                       # number of demand (read+write) miss cycles
system.cpu.dcache.overall_miss_latency::.switch_cpus.data 408034522147                       # number of overall miss cycles
system.cpu.dcache.overall_miss_latency::total 408034522147                       # number of overall miss cycles
system.cpu.dcache.demand_accesses::.cpu.data    430370628                       # number of demand (read+write) accesses
system.cpu.dcache.demand_accesses::.switch_cpus.data    415621139                       # number of demand (read+write) accesses
system.cpu.dcache.demand_accesses::total    845991767                       # number of demand (read+write) accesses
system.cpu.dcache.overall_accesses::.cpu.data    430371768                       # number of overall (read+write) accesses
system.cpu.dcache.overall_accesses::.switch_cpus.data    415621139                       # number of overall (read+write) accesses
system.cpu.dcache.overall_accesses::total    845992907                       # number of overall (read+write) accesses
system.cpu.dcache.demand_miss_rate::.cpu.data     0.050861                       # miss rate for demand accesses
system.cpu.dcache.demand_miss_rate::.switch_cpus.data     0.074532                       # miss rate for demand accesses
system.cpu.dcache.demand_miss_rate::total     0.062490                       # miss rate for demand accesses
system.cpu.dcache.overall_miss_rate::.cpu.data     0.050861                       # miss rate for overall accesses
system.cpu.dcache.overall_miss_rate::.switch_cpus.data     0.074532                       # miss rate for overall accesses
system.cpu.dcache.overall_miss_rate::total     0.062490                       # miss rate for overall accesses
system.cpu.dcache.demand_avg_miss_latency::.switch_cpus.data 13172.063312                       # average overall miss latency
system.cpu.dcache.demand_avg_miss_latency::total  7718.232281                       # average overall miss latency
system.cpu.dcache.overall_avg_miss_latency::.switch_cpus.data 13172.063312                       # average overall miss latency
system.cpu.dcache.overall_avg_miss_latency::total  7718.231405                       # average overall miss latency
system.cpu.dcache.blocked_cycles::no_mshrs      5163543                       # number of cycles access was blocked
system.cpu.dcache.blocked_cycles::no_targets            0                       # number of cycles access was blocked
system.cpu.dcache.blocked::no_mshrs            524472                       # number of cycles access was blocked
system.cpu.dcache.blocked::no_targets               0                       # number of cycles access was blocked
system.cpu.dcache.avg_blocked_cycles::no_mshrs     9.845221                       # average number of cycles each access was blocked
system.cpu.dcache.avg_blocked_cycles::no_targets          nan                       # average number of cycles each access was blocked
system.cpu.dcache.writebacks::.writebacks     29286962                       # number of writebacks
system.cpu.dcache.writebacks::total          29286962                       # number of writebacks
system.cpu.dcache.demand_mshr_hits::.switch_cpus.data     23575535                       # number of demand (read+write) MSHR hits
system.cpu.dcache.demand_mshr_hits::total     23575535                       # number of demand (read+write) MSHR hits
system.cpu.dcache.overall_mshr_hits::.switch_cpus.data     23575535                       # number of overall MSHR hits
system.cpu.dcache.overall_mshr_hits::total     23575535                       # number of overall MSHR hits
system.cpu.dcache.demand_mshr_misses::.switch_cpus.data      7401732                       # number of demand (read+write) MSHR misses
system.cpu.dcache.demand_mshr_misses::total      7401732                       # number of demand (read+write) MSHR misses
system.cpu.dcache.overall_mshr_misses::.switch_cpus.data      7401732                       # number of overall MSHR misses
system.cpu.dcache.overall_mshr_misses::total      7401732                       # number of overall MSHR misses
system.cpu.dcache.demand_mshr_miss_latency::.switch_cpus.data 119876621955                       # number of demand (read+write) MSHR miss cycles
system.cpu.dcache.demand_mshr_miss_latency::total 119876621955                       # number of demand (read+write) MSHR miss cycles
system.cpu.dcache.overall_mshr_miss_latency::.switch_cpus.data 119876621955                       # number of overall MSHR miss cycles
system.cpu.dcache.overall_mshr_miss_latency::total 119876621955                       # number of overall MSHR miss cycles
system.cpu.dcache.demand_mshr_miss_rate::.switch_cpus.data     0.017809                       # mshr miss rate for demand accesses
system.cpu.dcache.demand_mshr_miss_rate::total     0.008749                       # mshr miss rate for demand accesses
system.cpu.dcache.overall_mshr_miss_rate::.switch_cpus.data     0.017809                       # mshr miss rate for overall accesses
system.cpu.dcache.overall_mshr_miss_rate::total     0.008749                       # mshr miss rate for overall accesses
system.cpu.dcache.demand_avg_mshr_miss_latency::.switch_cpus.data 16195.752826                       # average overall mshr miss latency
system.cpu.dcache.demand_avg_mshr_miss_latency::total 16195.752826                       # average overall mshr miss latency
system.cpu.dcache.overall_avg_mshr_miss_latency::.switch_cpus.data 16195.752826                       # average overall mshr miss latency
system.cpu.dcache.overall_avg_mshr_miss_latency::total 16195.752826                       # average overall mshr miss latency
system.cpu.dcache.replacements               29289765                       # number of replacements
system.cpu.dcache.ReadReq_hits::.cpu.data    268451596                       # number of ReadReq hits
system.cpu.dcache.ReadReq_hits::.switch_cpus.data    258033513                       # number of ReadReq hits
system.cpu.dcache.ReadReq_hits::total       526485109                       # number of ReadReq hits
system.cpu.dcache.ReadReq_misses::.cpu.data     13521477                       # number of ReadReq misses
system.cpu.dcache.ReadReq_misses::.switch_cpus.data      9570857                       # number of ReadReq misses
system.cpu.dcache.ReadReq_misses::total      23092334                       # number of ReadReq misses
system.cpu.dcache.ReadReq_miss_latency::.switch_cpus.data 133751573000                       # number of ReadReq miss cycles
system.cpu.dcache.ReadReq_miss_latency::total 133751573000                       # number of ReadReq miss cycles
system.cpu.dcache.ReadReq_accesses::.cpu.data    281973073                       # number of ReadReq accesses(hits+misses)
system.cpu.dcache.ReadReq_accesses::.switch_cpus.data    267604370                       # number of ReadReq accesses(hits+misses)
system.cpu.dcache.ReadReq_accesses::total    549577443                       # number of ReadReq accesses(hits+misses)
system.cpu.dcache.ReadReq_miss_rate::.cpu.data     0.047953                       # miss rate for ReadReq accesses
system.cpu.dcache.ReadReq_miss_rate::.switch_cpus.data     0.035765                       # miss rate for ReadReq accesses
system.cpu.dcache.ReadReq_miss_rate::total     0.042018                       # miss rate for ReadReq accesses
system.cpu.dcache.ReadReq_avg_miss_latency::.switch_cpus.data 13974.879470                       # average ReadReq miss latency
system.cpu.dcache.ReadReq_avg_miss_latency::total  5792.033538                       # average ReadReq miss latency
system.cpu.dcache.ReadReq_mshr_hits::.switch_cpus.data      6244906                       # number of ReadReq MSHR hits
system.cpu.dcache.ReadReq_mshr_hits::total      6244906                       # number of ReadReq MSHR hits
system.cpu.dcache.ReadReq_mshr_misses::.switch_cpus.data      3325951                       # number of ReadReq MSHR misses
system.cpu.dcache.ReadReq_mshr_misses::total      3325951                       # number of ReadReq MSHR misses
system.cpu.dcache.ReadReq_mshr_miss_latency::.switch_cpus.data  56582056000                       # number of ReadReq MSHR miss cycles
system.cpu.dcache.ReadReq_mshr_miss_latency::total  56582056000                       # number of ReadReq MSHR miss cycles
system.cpu.dcache.ReadReq_mshr_miss_rate::.switch_cpus.data     0.012429                       # mshr miss rate for ReadReq accesses
system.cpu.dcache.ReadReq_mshr_miss_rate::total     0.006052                       # mshr miss rate for ReadReq accesses
system.cpu.dcache.ReadReq_avg_mshr_miss_latency::.switch_cpus.data 17012.293927                       # average ReadReq mshr miss latency
system.cpu.dcache.ReadReq_avg_mshr_miss_latency::total 17012.293927                       # average ReadReq mshr miss latency
system.cpu.dcache.WriteReq_hits::.cpu.data    140029981                       # number of WriteReq hits
system.cpu.dcache.WriteReq_hits::.switch_cpus.data    126610359                       # number of WriteReq hits
system.cpu.dcache.WriteReq_hits::total      266640340                       # number of WriteReq hits
system.cpu.dcache.WriteReq_misses::.cpu.data      8367567                       # number of WriteReq misses
system.cpu.dcache.WriteReq_misses::.switch_cpus.data     21406410                       # number of WriteReq misses
system.cpu.dcache.WriteReq_misses::total     29773977                       # number of WriteReq misses
system.cpu.dcache.WriteReq_miss_latency::.switch_cpus.data 274282949147                       # number of WriteReq miss cycles
system.cpu.dcache.WriteReq_miss_latency::total 274282949147                       # number of WriteReq miss cycles
system.cpu.dcache.WriteReq_accesses::.cpu.data    148397548                       # number of WriteReq accesses(hits+misses)
system.cpu.dcache.WriteReq_accesses::.switch_cpus.data    148016769                       # number of WriteReq accesses(hits+misses)
system.cpu.dcache.WriteReq_accesses::total    296414317                       # number of WriteReq accesses(hits+misses)
system.cpu.dcache.WriteReq_miss_rate::.cpu.data     0.056386                       # miss rate for WriteReq accesses
system.cpu.dcache.WriteReq_miss_rate::.switch_cpus.data     0.144622                       # miss rate for WriteReq accesses
system.cpu.dcache.WriteReq_miss_rate::total     0.100447                       # miss rate for WriteReq accesses
system.cpu.dcache.WriteReq_avg_miss_latency::.switch_cpus.data 12813.122291                       # average WriteReq miss latency
system.cpu.dcache.WriteReq_avg_miss_latency::total  9212.170384                       # average WriteReq miss latency
system.cpu.dcache.WriteReq_mshr_hits::.switch_cpus.data     17330629                       # number of WriteReq MSHR hits
system.cpu.dcache.WriteReq_mshr_hits::total     17330629                       # number of WriteReq MSHR hits
system.cpu.dcache.WriteReq_mshr_misses::.switch_cpus.data      4075781                       # number of WriteReq MSHR misses
system.cpu.dcache.WriteReq_mshr_misses::total      4075781                       # number of WriteReq MSHR misses
system.cpu.dcache.WriteReq_mshr_miss_latency::.switch_cpus.data  63294565955                       # number of WriteReq MSHR miss cycles
system.cpu.dcache.WriteReq_mshr_miss_latency::total  63294565955                       # number of WriteReq MSHR miss cycles
system.cpu.dcache.WriteReq_mshr_miss_rate::.switch_cpus.data     0.027536                       # mshr miss rate for WriteReq accesses
system.cpu.dcache.WriteReq_mshr_miss_rate::total     0.013750                       # mshr miss rate for WriteReq accesses
system.cpu.dcache.WriteReq_avg_mshr_miss_latency::.switch_cpus.data 15529.432508                       # average WriteReq mshr miss latency
system.cpu.dcache.WriteReq_avg_mshr_miss_latency::total 15529.432508                       # average WriteReq mshr miss latency
system.cpu.dcache.SoftPFReq_hits::.cpu.data         1134                       # number of SoftPFReq hits
system.cpu.dcache.SoftPFReq_hits::total          1134                       # number of SoftPFReq hits
system.cpu.dcache.SoftPFReq_misses::.cpu.data            6                       # number of SoftPFReq misses
system.cpu.dcache.SoftPFReq_misses::total            6                       # number of SoftPFReq misses
system.cpu.dcache.SoftPFReq_accesses::.cpu.data         1140                       # number of SoftPFReq accesses(hits+misses)
system.cpu.dcache.SoftPFReq_accesses::total         1140                       # number of SoftPFReq accesses(hits+misses)
system.cpu.dcache.SoftPFReq_miss_rate::.cpu.data     0.005263                       # miss rate for SoftPFReq accesses
system.cpu.dcache.SoftPFReq_miss_rate::total     0.005263                       # miss rate for SoftPFReq accesses
system.cpu.dcache.WriteLineReq_misses::.cpu.data            7                       # number of WriteLineReq misses
system.cpu.dcache.WriteLineReq_misses::total            7                       # number of WriteLineReq misses
system.cpu.dcache.WriteLineReq_accesses::.cpu.data            7                       # number of WriteLineReq accesses(hits+misses)
system.cpu.dcache.WriteLineReq_accesses::total            7                       # number of WriteLineReq accesses(hits+misses)
system.cpu.dcache.WriteLineReq_miss_rate::.cpu.data            1                       # miss rate for WriteLineReq accesses
system.cpu.dcache.WriteLineReq_miss_rate::total            1                       # miss rate for WriteLineReq accesses
system.cpu.dcache.LoadLockedReq_hits::.cpu.data         1940                       # number of LoadLockedReq hits
system.cpu.dcache.LoadLockedReq_hits::total         1940                       # number of LoadLockedReq hits
system.cpu.dcache.LoadLockedReq_accesses::.cpu.data         1940                       # number of LoadLockedReq accesses(hits+misses)
system.cpu.dcache.LoadLockedReq_accesses::total         1940                       # number of LoadLockedReq accesses(hits+misses)
system.cpu.dcache.StoreCondReq_hits::.cpu.data         1940                       # number of StoreCondReq hits
system.cpu.dcache.StoreCondReq_hits::total         1940                       # number of StoreCondReq hits
system.cpu.dcache.StoreCondReq_accesses::.cpu.data         1940                       # number of StoreCondReq accesses(hits+misses)
system.cpu.dcache.StoreCondReq_accesses::total         1940                       # number of StoreCondReq accesses(hits+misses)
system.cpu.dcache.power_state.pwrStateResidencyTicks::UNDEFINED 669592361000                       # Cumulative time (in ticks) in various power states
system.cpu.dcache.tags.tagsinuse          1022.930908                       # Cycle average of tags in use
system.cpu.dcache.tags.total_refs           822421252                       # Total number of references to valid blocks.
system.cpu.dcache.tags.sampled_refs          29290789                       # Sample count of references to valid blocks.
system.cpu.dcache.tags.avg_refs             28.077811                       # Average number of references to valid blocks.
system.cpu.dcache.tags.warmup_cycle              1500                       # Cycle when the warmup percentage was hit.
system.cpu.dcache.tags.occ_blocks::.cpu.data   765.858266                       # Average occupied blocks per requestor
system.cpu.dcache.tags.occ_blocks::.switch_cpus.data   257.072642                       # Average occupied blocks per requestor
system.cpu.dcache.tags.occ_percent::.cpu.data     0.747908                       # Average percentage of cache occupancy
system.cpu.dcache.tags.occ_percent::.switch_cpus.data     0.251048                       # Average percentage of cache occupancy
system.cpu.dcache.tags.occ_percent::total     0.998956                       # Average percentage of cache occupancy
system.cpu.dcache.tags.occ_task_id_blocks::1024         1024                       # Occupied blocks per task id
system.cpu.dcache.tags.age_task_id_blocks_1024::0          294                       # Occupied blocks per task id
system.cpu.dcache.tags.age_task_id_blocks_1024::1          619                       # Occupied blocks per task id
system.cpu.dcache.tags.age_task_id_blocks_1024::2          109                       # Occupied blocks per task id
system.cpu.dcache.tags.age_task_id_blocks_1024::3            2                       # Occupied blocks per task id
system.cpu.dcache.tags.occ_task_id_percent::1024            1                       # Percentage of cache occupancy per task id
system.cpu.dcache.tags.tag_accesses        1721284363                       # Number of tag accesses
system.cpu.dcache.tags.data_accesses       1721284363                       # Number of data accesses
system.cpu.dcache.tags.power_state.pwrStateResidencyTicks::UNDEFINED 669592361000                       # Cumulative time (in ticks) in various power states
system.cpu.power_state.numTransitions               2                       # Number of power state transitions
system.cpu.power_state.pwrStateResidencyTicks::ON 501453809500                       # Cumulative time (in ticks) in various power states
system.cpu.power_state.pwrStateResidencyTicks::OFF 168138551500                       # Cumulative time (in ticks) in various power states

---------- End Simulation Statistics   ----------
