
---------- Begin Simulation Statistics ----------
final_tick                                 1084938500                       # Number of ticks from beginning of simulation (restored from checkpoints and never reset)
host_inst_rate                                 110161                       # Simulator instruction rate (inst/s)
host_mem_usage                                 858092                       # Number of bytes of host memory used
host_op_rate                                   116243                       # Simulator op (including micro ops) rate (op/s)
host_seconds                                    38.38                       # Real time elapsed on the host
host_tick_rate                               28265339                       # Simulator tick rate (ticks/s)
sim_freq                                 1000000000000                       # Frequency of simulated ticks
sim_insts                                     4228395                       # Number of instructions simulated
sim_ops                                       4461863                       # Number of ops (including micro ops) simulated
sim_seconds                                  0.001085                       # Number of seconds simulated
sim_ticks                                  1084938500                       # Number of ticks simulated
system.cpu.branchPred.BTBCorrect                    0                       # Number of correct BTB predictions (this stat may not work properly.
system.cpu.branchPred.BTBHitPct             99.138801                       # BTB Hit Percentage
system.cpu.branchPred.BTBHits                  336948                       # Number of BTB hits
system.cpu.branchPred.BTBLookups               339875                       # Number of BTB lookups
system.cpu.branchPred.RASInCorrect                  2                       # Number of incorrect RAS predictions.
system.cpu.branchPred.condIncorrect              4653                       # Number of conditional branches incorrect
system.cpu.branchPred.condPredicted            381672                       # Number of conditional branches predicted
system.cpu.branchPred.indirectHits               1160                       # Number of indirect target hits.
system.cpu.branchPred.indirectLookups            2111                       # Number of indirect predictor lookups.
system.cpu.branchPred.indirectMisses              951                       # Number of indirect misses.
system.cpu.branchPred.lookups                  520670                       # Number of BP lookups
system.cpu.branchPred.loop_predictor.loopPredictorCorrect       104230                       # Number of times the loop predictor is the provider and the prediction is correct
system.cpu.branchPred.loop_predictor.loopPredictorWrong       250225                       # Number of times the loop predictor is the provider and the prediction is wrong
system.cpu.branchPred.statistical_corrector.scPredictorCorrect       102531                       # Number of time the SC predictor is the provider and the prediction is correct
system.cpu.branchPred.statistical_corrector.scPredictorWrong       251924                       # Number of time the SC predictor is the provider and the prediction is wrong
system.cpu.branchPred.statistical_corrector.whPredictorCorrect          652                       # Number of time the WH predictor is the provider and the prediction is correct
system.cpu.branchPred.statistical_corrector.whPredictorWrong          117                       # Number of time the WH predictor is the provider and the prediction is wrong
system.cpu.branchPred.tage.bimodalAltMatchProviderCorrect          358                       # Number of times TAGE Alt Match is the bimodal and it is the provider and the prediction is correct
system.cpu.branchPred.tage.bimodalAltMatchProviderWrong           95                       # Number of times TAGE Alt Match is the bimodal and it is the provider and the prediction is wrong
system.cpu.branchPred.tage.tageAltMatchProvider::0        43364                       # TAGE provider for alt match
system.cpu.branchPred.tage.tageAltMatchProvider::1            0                       # TAGE provider for alt match
system.cpu.branchPred.tage.tageAltMatchProvider::2         1029                       # TAGE provider for alt match
system.cpu.branchPred.tage.tageAltMatchProvider::3            0                       # TAGE provider for alt match
system.cpu.branchPred.tage.tageAltMatchProvider::4          444                       # TAGE provider for alt match
system.cpu.branchPred.tage.tageAltMatchProvider::5            0                       # TAGE provider for alt match
system.cpu.branchPred.tage.tageAltMatchProvider::6          111                       # TAGE provider for alt match
system.cpu.branchPred.tage.tageAltMatchProvider::7         1214                       # TAGE provider for alt match
system.cpu.branchPred.tage.tageAltMatchProvider::8          408                       # TAGE provider for alt match
system.cpu.branchPred.tage.tageAltMatchProvider::9          247                       # TAGE provider for alt match
system.cpu.branchPred.tage.tageAltMatchProvider::10          325                       # TAGE provider for alt match
system.cpu.branchPred.tage.tageAltMatchProvider::11          278                       # TAGE provider for alt match
system.cpu.branchPred.tage.tageAltMatchProvider::12          177                       # TAGE provider for alt match
system.cpu.branchPred.tage.tageAltMatchProvider::13          116                       # TAGE provider for alt match
system.cpu.branchPred.tage.tageAltMatchProvider::14          215                       # TAGE provider for alt match
system.cpu.branchPred.tage.tageAltMatchProvider::15          115                       # TAGE provider for alt match
system.cpu.branchPred.tage.tageAltMatchProvider::16          103                       # TAGE provider for alt match
system.cpu.branchPred.tage.tageAltMatchProvider::17          101                       # TAGE provider for alt match
system.cpu.branchPred.tage.tageAltMatchProvider::18          113                       # TAGE provider for alt match
system.cpu.branchPred.tage.tageAltMatchProvider::19           56                       # TAGE provider for alt match
system.cpu.branchPred.tage.tageAltMatchProvider::20           67                       # TAGE provider for alt match
system.cpu.branchPred.tage.tageAltMatchProvider::21            0                       # TAGE provider for alt match
system.cpu.branchPred.tage.tageAltMatchProvider::22          122                       # TAGE provider for alt match
system.cpu.branchPred.tage.tageAltMatchProvider::23            0                       # TAGE provider for alt match
system.cpu.branchPred.tage.tageAltMatchProvider::24           99                       # TAGE provider for alt match
system.cpu.branchPred.tage.tageAltMatchProvider::25            0                       # TAGE provider for alt match
system.cpu.branchPred.tage.tageAltMatchProvider::26           89                       # TAGE provider for alt match
system.cpu.branchPred.tage.tageAltMatchProvider::27            0                       # TAGE provider for alt match
system.cpu.branchPred.tage.tageAltMatchProvider::28           41                       # TAGE provider for alt match
system.cpu.branchPred.tage.tageAltMatchProvider::29            0                       # TAGE provider for alt match
system.cpu.branchPred.tage.tageAltMatchProvider::30            0                       # TAGE provider for alt match
system.cpu.branchPred.tage.tageAltMatchProviderCorrect          463                       # Number of times TAGE Alt Match is the provider and the prediction is correct
system.cpu.branchPred.tage.tageAltMatchProviderWouldHaveHit          174                       # Number of times TAGE Longest Match is the provider, the prediction is wrong and Alt Match prediction was correct
system.cpu.branchPred.tage.tageAltMatchProviderWrong          246                       # Number of times TAGE Alt Match is the provider and the prediction is wrong
system.cpu.branchPred.tage.tageBimodalProviderCorrect       302744                       # Number of times there are no hits on the TAGE tables and the bimodal prediction is correct
system.cpu.branchPred.tage.tageBimodalProviderWrong         1697                       # Number of times there are no hits on the TAGE tables and the bimodal prediction is wrong
system.cpu.branchPred.tage.tageLongestMatchProvider::0            0                       # TAGE provider for longest match
system.cpu.branchPred.tage.tageLongestMatchProvider::1            0                       # TAGE provider for longest match
system.cpu.branchPred.tage.tageLongestMatchProvider::2          666                       # TAGE provider for longest match
system.cpu.branchPred.tage.tageLongestMatchProvider::3            0                       # TAGE provider for longest match
system.cpu.branchPred.tage.tageLongestMatchProvider::4          372                       # TAGE provider for longest match
system.cpu.branchPred.tage.tageLongestMatchProvider::5            0                       # TAGE provider for longest match
system.cpu.branchPred.tage.tageLongestMatchProvider::6        21280                       # TAGE provider for longest match
system.cpu.branchPred.tage.tageLongestMatchProvider::7        20735                       # TAGE provider for longest match
system.cpu.branchPred.tage.tageLongestMatchProvider::8          512                       # TAGE provider for longest match
system.cpu.branchPred.tage.tageLongestMatchProvider::9          251                       # TAGE provider for longest match
system.cpu.branchPred.tage.tageLongestMatchProvider::10         1483                       # TAGE provider for longest match
system.cpu.branchPred.tage.tageLongestMatchProvider::11         1239                       # TAGE provider for longest match
system.cpu.branchPred.tage.tageLongestMatchProvider::12          415                       # TAGE provider for longest match
system.cpu.branchPred.tage.tageLongestMatchProvider::13          274                       # TAGE provider for longest match
system.cpu.branchPred.tage.tageLongestMatchProvider::14          296                       # TAGE provider for longest match
system.cpu.branchPred.tage.tageLongestMatchProvider::15          186                       # TAGE provider for longest match
system.cpu.branchPred.tage.tageLongestMatchProvider::16          108                       # TAGE provider for longest match
system.cpu.branchPred.tage.tageLongestMatchProvider::17          123                       # TAGE provider for longest match
system.cpu.branchPred.tage.tageLongestMatchProvider::18          134                       # TAGE provider for longest match
system.cpu.branchPred.tage.tageLongestMatchProvider::19          106                       # TAGE provider for longest match
system.cpu.branchPred.tage.tageLongestMatchProvider::20          142                       # TAGE provider for longest match
system.cpu.branchPred.tage.tageLongestMatchProvider::21            0                       # TAGE provider for longest match
system.cpu.branchPred.tage.tageLongestMatchProvider::22           65                       # TAGE provider for longest match
system.cpu.branchPred.tage.tageLongestMatchProvider::23            0                       # TAGE provider for longest match
system.cpu.branchPred.tage.tageLongestMatchProvider::24          136                       # TAGE provider for longest match
system.cpu.branchPred.tage.tageLongestMatchProvider::25            0                       # TAGE provider for longest match
system.cpu.branchPred.tage.tageLongestMatchProvider::26          104                       # TAGE provider for longest match
system.cpu.branchPred.tage.tageLongestMatchProvider::27            0                       # TAGE provider for longest match
system.cpu.branchPred.tage.tageLongestMatchProvider::28          130                       # TAGE provider for longest match
system.cpu.branchPred.tage.tageLongestMatchProvider::29            0                       # TAGE provider for longest match
system.cpu.branchPred.tage.tageLongestMatchProvider::30           77                       # TAGE provider for longest match
system.cpu.branchPred.tage.tageLongestMatchProviderCorrect        47373                       # Number of times TAGE Longest Match is the provider and the prediction is correct
system.cpu.branchPred.tage.tageLongestMatchProviderWouldHaveHit          140                       # Number of times TAGE Alt Match is the provider, the prediction is wrong and Longest Match prediction was correct
system.cpu.branchPred.tage.tageLongestMatchProviderWrong          752                       # Number of times TAGE Longest Match is the provider and the prediction is wrong
system.cpu.branchPred.usedRAS                   64745                       # Number of times the RAS was used to get a target.
system.cpu.branchPredindirectMispredicted          298                       # Number of mispredicted indirect branches.
system.cpu.cc_regfile_reads                    886720                       # number of cc regfile reads
system.cpu.cc_regfile_writes                   884405                       # number of cc regfile writes
system.cpu.commit.amos                              0                       # Number of atomic instructions committed
system.cpu.commit.branchMispredicts              3733                       # The number of times a branch was mispredicted
system.cpu.commit.branches                     487016                       # Number of branches committed
system.cpu.commit.bw_lim_events                367568                       # number cycles where commit BW limit reached
system.cpu.commit.commitNonSpecStalls             313                       # The number of times commit has been forced to stall to communicate backwards
system.cpu.commit.commitSquashedInsts          109984                       # The number of squashed insts skipped by commit
system.cpu.commit.committedInsts              4228952                       # Number of instructions committed
system.cpu.commit.committedOps                4462420                       # Number of ops (including micro ops) committed
system.cpu.commit.committed_per_cycle::samples      2043628                       # Number of insts commited each cycle
system.cpu.commit.committed_per_cycle::mean     2.183577                       # Number of insts commited each cycle
system.cpu.commit.committed_per_cycle::stdev     3.041912                       # Number of insts commited each cycle
system.cpu.commit.committed_per_cycle::underflows            0      0.00%      0.00% # Number of insts commited each cycle
system.cpu.commit.committed_per_cycle::0       977208     47.82%     47.82% # Number of insts commited each cycle
system.cpu.commit.committed_per_cycle::1       298869     14.62%     62.44% # Number of insts commited each cycle
system.cpu.commit.committed_per_cycle::2       265134     12.97%     75.42% # Number of insts commited each cycle
system.cpu.commit.committed_per_cycle::3        19296      0.94%     76.36% # Number of insts commited each cycle
system.cpu.commit.committed_per_cycle::4        15881      0.78%     77.14% # Number of insts commited each cycle
system.cpu.commit.committed_per_cycle::5        50820      2.49%     79.62% # Number of insts commited each cycle
system.cpu.commit.committed_per_cycle::6        24737      1.21%     80.83% # Number of insts commited each cycle
system.cpu.commit.committed_per_cycle::7        24115      1.18%     82.01% # Number of insts commited each cycle
system.cpu.commit.committed_per_cycle::8       367568     17.99%    100.00% # Number of insts commited each cycle
system.cpu.commit.committed_per_cycle::overflows            0      0.00%    100.00% # Number of insts commited each cycle
system.cpu.commit.committed_per_cycle::min_value            0                       # Number of insts commited each cycle
system.cpu.commit.committed_per_cycle::max_value            8                       # Number of insts commited each cycle
system.cpu.commit.committed_per_cycle::total      2043628                       # Number of insts commited each cycle
system.cpu.commit.fp_insts                          0                       # Number of committed floating point instructions.
system.cpu.commit.function_calls                63038                       # Number of function calls committed.
system.cpu.commit.int_insts                   2716588                       # Number of committed integer instructions.
system.cpu.commit.loads                        501197                       # Number of loads committed
system.cpu.commit.membars                         278                       # Number of memory barriers committed
system.cpu.commit.op_class_0::No_OpClass          165      0.00%      0.00% # Class of committed instruction
system.cpu.commit.op_class_0::IntAlu          2086122     46.75%     46.75% # Class of committed instruction
system.cpu.commit.op_class_0::IntMult            3338      0.07%     46.83% # Class of committed instruction
system.cpu.commit.op_class_0::IntDiv              459      0.01%     46.84% # Class of committed instruction
system.cpu.commit.op_class_0::FloatAdd         334068      7.49%     54.32% # Class of committed instruction
system.cpu.commit.op_class_0::FloatCmp              4      0.00%     54.32% # Class of committed instruction
system.cpu.commit.op_class_0::FloatCvt          76968      1.72%     56.05% # Class of committed instruction
system.cpu.commit.op_class_0::FloatMult        257002      5.76%     61.81% # Class of committed instruction
system.cpu.commit.op_class_0::FloatMultAcc       811455     18.18%     79.99% # Class of committed instruction
system.cpu.commit.op_class_0::FloatDiv              3      0.00%     79.99% # Class of committed instruction
system.cpu.commit.op_class_0::FloatMisc        176468      3.95%     83.95% # Class of committed instruction
system.cpu.commit.op_class_0::FloatSqrt             0      0.00%     83.95% # Class of committed instruction
system.cpu.commit.op_class_0::SimdAdd             385      0.01%     83.96% # Class of committed instruction
system.cpu.commit.op_class_0::SimdAddAcc            0      0.00%     83.96% # Class of committed instruction
system.cpu.commit.op_class_0::SimdAlu             504      0.01%     83.97% # Class of committed instruction
system.cpu.commit.op_class_0::SimdCmp             460      0.01%     83.98% # Class of committed instruction
system.cpu.commit.op_class_0::SimdCvt               0      0.00%     83.98% # Class of committed instruction
system.cpu.commit.op_class_0::SimdMisc            477      0.01%     83.99% # Class of committed instruction
system.cpu.commit.op_class_0::SimdMult              0      0.00%     83.99% # Class of committed instruction
system.cpu.commit.op_class_0::SimdMultAcc            0      0.00%     83.99% # Class of committed instruction
system.cpu.commit.op_class_0::SimdShift             0      0.00%     83.99% # Class of committed instruction
system.cpu.commit.op_class_0::SimdShiftAcc            0      0.00%     83.99% # Class of committed instruction
system.cpu.commit.op_class_0::SimdDiv               0      0.00%     83.99% # Class of committed instruction
system.cpu.commit.op_class_0::SimdSqrt              0      0.00%     83.99% # Class of committed instruction
system.cpu.commit.op_class_0::SimdFloatAdd            0      0.00%     83.99% # Class of committed instruction
system.cpu.commit.op_class_0::SimdFloatAlu            0      0.00%     83.99% # Class of committed instruction
system.cpu.commit.op_class_0::SimdFloatCmp            0      0.00%     83.99% # Class of committed instruction
system.cpu.commit.op_class_0::SimdFloatCvt            0      0.00%     83.99% # Class of committed instruction
system.cpu.commit.op_class_0::SimdFloatDiv            0      0.00%     83.99% # Class of committed instruction
system.cpu.commit.op_class_0::SimdFloatMisc            0      0.00%     83.99% # Class of committed instruction
system.cpu.commit.op_class_0::SimdFloatMult            0      0.00%     83.99% # Class of committed instruction
system.cpu.commit.op_class_0::SimdFloatMultAcc            0      0.00%     83.99% # Class of committed instruction
system.cpu.commit.op_class_0::SimdFloatSqrt            0      0.00%     83.99% # Class of committed instruction
system.cpu.commit.op_class_0::SimdReduceAdd            0      0.00%     83.99% # Class of committed instruction
system.cpu.commit.op_class_0::SimdReduceAlu            0      0.00%     83.99% # Class of committed instruction
system.cpu.commit.op_class_0::SimdReduceCmp            0      0.00%     83.99% # Class of committed instruction
system.cpu.commit.op_class_0::SimdFloatReduceAdd            0      0.00%     83.99% # Class of committed instruction
system.cpu.commit.op_class_0::SimdFloatReduceCmp            0      0.00%     83.99% # Class of committed instruction
system.cpu.commit.op_class_0::SimdAes               0      0.00%     83.99% # Class of committed instruction
system.cpu.commit.op_class_0::SimdAesMix            0      0.00%     83.99% # Class of committed instruction
system.cpu.commit.op_class_0::SimdSha1Hash            0      0.00%     83.99% # Class of committed instruction
system.cpu.commit.op_class_0::SimdSha1Hash2            0      0.00%     83.99% # Class of committed instruction
system.cpu.commit.op_class_0::SimdSha256Hash            0      0.00%     83.99% # Class of committed instruction
system.cpu.commit.op_class_0::SimdSha256Hash2            0      0.00%     83.99% # Class of committed instruction
system.cpu.commit.op_class_0::SimdShaSigma2            0      0.00%     83.99% # Class of committed instruction
system.cpu.commit.op_class_0::SimdShaSigma3            0      0.00%     83.99% # Class of committed instruction
system.cpu.commit.op_class_0::SimdPredAlu            0      0.00%     83.99% # Class of committed instruction
system.cpu.commit.op_class_0::MemRead          501197     11.23%     95.22% # Class of committed instruction
system.cpu.commit.op_class_0::MemWrite         213345      4.78%    100.00% # Class of committed instruction
system.cpu.commit.op_class_0::FloatMemRead            0      0.00%    100.00% # Class of committed instruction
system.cpu.commit.op_class_0::FloatMemWrite            0      0.00%    100.00% # Class of committed instruction
system.cpu.commit.op_class_0::IprAccess             0      0.00%    100.00% # Class of committed instruction
system.cpu.commit.op_class_0::InstPrefetch            0      0.00%    100.00% # Class of committed instruction
system.cpu.commit.op_class_0::total           4462420                       # Class of committed instruction
system.cpu.commit.refs                         714542                       # Number of memory references committed
system.cpu.commit.swp_count                         0                       # Number of s/w prefetches committed
system.cpu.commit.vec_insts                   2111732                       # Number of committed Vector instructions.
system.cpu.committedInsts                     4228395                       # Number of Instructions Simulated
system.cpu.committedOps                       4461863                       # Number of Ops (including micro ops) Simulated
system.cpu.cpi                               0.513168                       # CPI: Cycles Per Instruction
system.cpu.cpi_total                         0.513168                       # CPI: Total CPI of All Threads
system.cpu.decode.BlockedCycles                667426                       # Number of cycles decode is blocked
system.cpu.decode.BranchMispred                   932                       # Number of times decode detected a branch misprediction
system.cpu.decode.BranchResolved               335719                       # Number of times decode resolved a branch
system.cpu.decode.DecodedInsts                4609276                       # Number of instructions handled by decode
system.cpu.decode.IdleCycles                   517494                       # Number of cycles decode is idle
system.cpu.decode.RunCycles                    666937                       # Number of cycles decode is running
system.cpu.decode.SquashCycles                   4115                       # Number of cycles decode is squashing
system.cpu.decode.SquashedInsts                  3340                       # Number of squashed instructions handled by decode
system.cpu.decode.UnblockCycles                203863                       # Number of cycles decode is unblocking
system.cpu.dtb.accesses                             0                       # DTB accesses
system.cpu.dtb.align_faults                         0                       # Number of TLB faults due to alignment restrictions
system.cpu.dtb.domain_faults                        0                       # Number of TLB faults due to domain restrictions
system.cpu.dtb.flush_entries                        0                       # Number of entries that have been flushed from TLB
system.cpu.dtb.flush_tlb                            0                       # Number of times complete TLB was flushed
system.cpu.dtb.flush_tlb_asid                       0                       # Number of times TLB was flushed by ASID
system.cpu.dtb.flush_tlb_mva                        0                       # Number of times TLB was flushed by MVA
system.cpu.dtb.flush_tlb_mva_asid                   0                       # Number of times TLB was flushed by MVA & ASID
system.cpu.dtb.hits                                 0                       # DTB hits
system.cpu.dtb.inst_accesses                        0                       # ITB inst accesses
system.cpu.dtb.inst_hits                            0                       # ITB inst hits
system.cpu.dtb.inst_misses                          0                       # ITB inst misses
system.cpu.dtb.misses                               0                       # DTB misses
system.cpu.dtb.perms_faults                         0                       # Number of TLB faults due to permissions restrictions
system.cpu.dtb.prefetch_faults                      0                       # Number of TLB faults due to prefetch
system.cpu.dtb.read_accesses                        0                       # DTB read accesses
system.cpu.dtb.read_hits                            0                       # DTB read hits
system.cpu.dtb.read_misses                          0                       # DTB read misses
system.cpu.dtb.stage2_mmu.stage2_tlb.accesses            0                       # DTB accesses
system.cpu.dtb.stage2_mmu.stage2_tlb.align_faults            0                       # Number of TLB faults due to alignment restrictions
system.cpu.dtb.stage2_mmu.stage2_tlb.domain_faults            0                       # Number of TLB faults due to domain restrictions
system.cpu.dtb.stage2_mmu.stage2_tlb.flush_entries            0                       # Number of entries that have been flushed from TLB
system.cpu.dtb.stage2_mmu.stage2_tlb.flush_tlb            0                       # Number of times complete TLB was flushed
system.cpu.dtb.stage2_mmu.stage2_tlb.flush_tlb_asid            0                       # Number of times TLB was flushed by ASID
system.cpu.dtb.stage2_mmu.stage2_tlb.flush_tlb_mva            0                       # Number of times TLB was flushed by MVA
system.cpu.dtb.stage2_mmu.stage2_tlb.flush_tlb_mva_asid            0                       # Number of times TLB was flushed by MVA & ASID
system.cpu.dtb.stage2_mmu.stage2_tlb.hits            0                       # DTB hits
system.cpu.dtb.stage2_mmu.stage2_tlb.inst_accesses            0                       # ITB inst accesses
system.cpu.dtb.stage2_mmu.stage2_tlb.inst_hits            0                       # ITB inst hits
system.cpu.dtb.stage2_mmu.stage2_tlb.inst_misses            0                       # ITB inst misses
system.cpu.dtb.stage2_mmu.stage2_tlb.misses            0                       # DTB misses
system.cpu.dtb.stage2_mmu.stage2_tlb.perms_faults            0                       # Number of TLB faults due to permissions restrictions
system.cpu.dtb.stage2_mmu.stage2_tlb.prefetch_faults            0                       # Number of TLB faults due to prefetch
system.cpu.dtb.stage2_mmu.stage2_tlb.read_accesses            0                       # DTB read accesses
system.cpu.dtb.stage2_mmu.stage2_tlb.read_hits            0                       # DTB read hits
system.cpu.dtb.stage2_mmu.stage2_tlb.read_misses            0                       # DTB read misses
system.cpu.dtb.stage2_mmu.stage2_tlb.walker.walkRequestOrigin_Requested::Data            0                       # Table walker requests started/completed, data/inst
system.cpu.dtb.stage2_mmu.stage2_tlb.walker.walkRequestOrigin_Requested::Inst            0                       # Table walker requests started/completed, data/inst
system.cpu.dtb.stage2_mmu.stage2_tlb.walker.walkRequestOrigin_Requested::total            0                       # Table walker requests started/completed, data/inst
system.cpu.dtb.stage2_mmu.stage2_tlb.walker.walkRequestOrigin_Completed::Data            0                       # Table walker requests started/completed, data/inst
system.cpu.dtb.stage2_mmu.stage2_tlb.walker.walkRequestOrigin_Completed::Inst            0                       # Table walker requests started/completed, data/inst
system.cpu.dtb.stage2_mmu.stage2_tlb.walker.walkRequestOrigin_Completed::total            0                       # Table walker requests started/completed, data/inst
system.cpu.dtb.stage2_mmu.stage2_tlb.walker.walkRequestOrigin::total            0                       # Table walker requests started/completed, data/inst
system.cpu.dtb.stage2_mmu.stage2_tlb.walker.walks            0                       # Table walker walks requested
system.cpu.dtb.stage2_mmu.stage2_tlb.write_accesses            0                       # DTB write accesses
system.cpu.dtb.stage2_mmu.stage2_tlb.write_hits            0                       # DTB write hits
system.cpu.dtb.stage2_mmu.stage2_tlb.write_misses            0                       # DTB write misses
system.cpu.dtb.walker.walkRequestOrigin_Requested::Data            0                       # Table walker requests started/completed, data/inst
system.cpu.dtb.walker.walkRequestOrigin_Requested::Inst            0                       # Table walker requests started/completed, data/inst
system.cpu.dtb.walker.walkRequestOrigin_Requested::total            0                       # Table walker requests started/completed, data/inst
system.cpu.dtb.walker.walkRequestOrigin_Completed::Data            0                       # Table walker requests started/completed, data/inst
system.cpu.dtb.walker.walkRequestOrigin_Completed::Inst            0                       # Table walker requests started/completed, data/inst
system.cpu.dtb.walker.walkRequestOrigin_Completed::total            0                       # Table walker requests started/completed, data/inst
system.cpu.dtb.walker.walkRequestOrigin::total            0                       # Table walker requests started/completed, data/inst
system.cpu.dtb.walker.walks                         0                       # Table walker walks requested
system.cpu.dtb.write_accesses                       0                       # DTB write accesses
system.cpu.dtb.write_hits                           0                       # DTB write hits
system.cpu.dtb.write_misses                         0                       # DTB write misses
system.cpu.fetch.Branches                      520670                       # Number of branches that fetch encountered
system.cpu.fetch.CacheLines                    716098                       # Number of cache lines fetched
system.cpu.fetch.Cycles                       1287043                       # Number of cycles fetch has run and was not squashing or blocked
system.cpu.fetch.IcacheSquashes                  2386                       # Number of outstanding Icache misses that were squashed
system.cpu.fetch.IcacheWaitRetryStallCycles          107                       # Number of stall cycles due to full MSHR
system.cpu.fetch.Insts                        4394703                       # Number of instructions fetch has processed
system.cpu.fetch.MiscStallCycles                    7                       # Number of cycles fetch has spent waiting on interrupts, or bad addresses, or out of MSHRs
system.cpu.fetch.SquashCycles                   10070                       # Number of cycles fetch has spent squashing
system.cpu.fetch.branchRate                  0.239953                       # Number of branch fetches per cycle
system.cpu.fetch.icacheStallCycles             767643                       # Number of cycles fetch is stalled on an Icache miss
system.cpu.fetch.predictedBranches             402853                       # Number of branches that fetch has predicted taken
system.cpu.fetch.rate                        2.025322                       # Number of inst fetches per cycle
system.cpu.fetch.rateDist::samples            2059835                       # Number of instructions fetched each cycle (Total)
system.cpu.fetch.rateDist::mean              2.254951                       # Number of instructions fetched each cycle (Total)
system.cpu.fetch.rateDist::stdev             2.860484                       # Number of instructions fetched each cycle (Total)
system.cpu.fetch.rateDist::underflows               0      0.00%      0.00% # Number of instructions fetched each cycle (Total)
system.cpu.fetch.rateDist::0                   993419     48.23%     48.23% # Number of instructions fetched each cycle (Total)
system.cpu.fetch.rateDist::1                   201501      9.78%     58.01% # Number of instructions fetched each cycle (Total)
system.cpu.fetch.rateDist::2                   128357      6.23%     64.24% # Number of instructions fetched each cycle (Total)
system.cpu.fetch.rateDist::3                   114329      5.55%     69.79% # Number of instructions fetched each cycle (Total)
system.cpu.fetch.rateDist::4                   190242      9.24%     79.03% # Number of instructions fetched each cycle (Total)
system.cpu.fetch.rateDist::5                    42691      2.07%     81.10% # Number of instructions fetched each cycle (Total)
system.cpu.fetch.rateDist::6                   117849      5.72%     86.82% # Number of instructions fetched each cycle (Total)
system.cpu.fetch.rateDist::7                     9469      0.46%     87.28% # Number of instructions fetched each cycle (Total)
system.cpu.fetch.rateDist::8                   261978     12.72%    100.00% # Number of instructions fetched each cycle (Total)
system.cpu.fetch.rateDist::overflows                0      0.00%    100.00% # Number of instructions fetched each cycle (Total)
system.cpu.fetch.rateDist::min_value                0                       # Number of instructions fetched each cycle (Total)
system.cpu.fetch.rateDist::max_value                8                       # Number of instructions fetched each cycle (Total)
system.cpu.fetch.rateDist::total              2059835                       # Number of instructions fetched each cycle (Total)
system.cpu.idleCycles                          110044                       # Total number of cycles that the CPU has spent unscheduled due to idling
system.cpu.iew.branchMispredicts                 4518                       # Number of branch mispredicts detected at execute
system.cpu.iew.exec_branches                   501212                       # Number of branches executed
system.cpu.iew.exec_nop                           732                       # number of nop insts executed
system.cpu.iew.exec_rate                     2.139912                       # Inst execution rate
system.cpu.iew.exec_refs                       835482                       # number of memory reference insts executed
system.cpu.iew.exec_stores                     224247                       # Number of stores executed
system.cpu.iew.exec_swp                             0                       # number of swp insts executed
system.cpu.iew.iewBlockCycles                   30934                       # Number of cycles IEW is blocking
system.cpu.iew.iewDispLoadInsts                514435                       # Number of dispatched load instructions
system.cpu.iew.iewDispNonSpecInsts                393                       # Number of dispatched non-speculative instructions
system.cpu.iew.iewDispSquashedInsts              1195                       # Number of squashed instructions skipped by dispatch
system.cpu.iew.iewDispStoreInsts               229883                       # Number of dispatched store instructions
system.cpu.iew.iewDispatchedInsts             4577993                       # Number of instructions dispatched to IQ
system.cpu.iew.iewExecLoadInsts                611235                       # Number of load instructions executed
system.cpu.iew.iewExecSquashedInsts              5222                       # Number of squashed instructions skipped in execute
system.cpu.iew.iewExecutedInsts               4643350                       # Number of executed instructions
system.cpu.iew.iewIQFullEvents                    465                       # Number of times the IQ has become full, causing a stall
system.cpu.iew.iewIdleCycles                        0                       # Number of cycles IEW is idle
system.cpu.iew.iewLSQFullEvents                  3798                       # Number of times the LSQ has become full, causing a stall
system.cpu.iew.iewSquashCycles                   4115                       # Number of cycles IEW is squashing
system.cpu.iew.iewUnblockCycles                  4441                       # Number of cycles IEW is unblocking
system.cpu.iew.lsq.thread0.blockedLoads             0                       # Number of blocked loads due to partial load-store forwarding
system.cpu.iew.lsq.thread0.cacheBlocked         14154                       # Number of times an access to memory failed due to the cache being blocked
system.cpu.iew.lsq.thread0.forwLoads             2702                       # Number of loads that had data forwarded from stores
system.cpu.iew.lsq.thread0.ignoredResponses           44                       # Number of memory responses ignored because the instruction is squashed
system.cpu.iew.lsq.thread0.invAddrLoads             0                       # Number of loads ignored due to an invalid address
system.cpu.iew.lsq.thread0.invAddrSwpfs             0                       # Number of software prefetches ignored due to an invalid address
system.cpu.iew.lsq.thread0.memOrderViolation           80                       # Number of memory ordering violations
system.cpu.iew.lsq.thread0.rescheduledLoads         1922                       # Number of loads that were rescheduled
system.cpu.iew.lsq.thread0.squashedLoads        13238                       # Number of loads squashed
system.cpu.iew.lsq.thread0.squashedStores        16538                       # Number of stores squashed
system.cpu.iew.memOrderViolationEvents             80                       # Number of memory order violations
system.cpu.iew.predictedNotTakenIncorrect         2852                       # Number of branches that were predicted not taken incorrectly
system.cpu.iew.predictedTakenIncorrect           1666                       # Number of branches that were predicted taken incorrectly
system.cpu.iew.wb_consumers                   5891432                       # num instructions consuming a value
system.cpu.iew.wb_count                       4530191                       # cumulative count of insts written-back
system.cpu.iew.wb_fanout                     0.599657                       # average fanout of values written-back
system.cpu.iew.wb_producers                   3532838                       # num instructions producing a value
system.cpu.iew.wb_rate                       2.087762                       # insts written-back per cycle
system.cpu.iew.wb_sent                        4538971                       # cumulative count of insts sent to commit
system.cpu.int_regfile_reads                  3371246                       # number of integer regfile reads
system.cpu.int_regfile_writes                 1893879                       # number of integer regfile writes
system.cpu.ipc                               1.948678                       # IPC: Instructions Per Cycle
system.cpu.ipc_total                         1.948678                       # IPC: Total IPC of All Threads
system.cpu.iq.FU_type_0::No_OpClass               192      0.00%      0.00% # Type of FU issued
system.cpu.iq.FU_type_0::IntAlu               2148402     46.22%     46.22% # Type of FU issued
system.cpu.iq.FU_type_0::IntMult                 3397      0.07%     46.29% # Type of FU issued
system.cpu.iq.FU_type_0::IntDiv                   476      0.01%     46.30% # Type of FU issued
system.cpu.iq.FU_type_0::FloatAdd              334088      7.19%     53.49% # Type of FU issued
system.cpu.iq.FU_type_0::FloatCmp                   5      0.00%     53.49% # Type of FU issued
system.cpu.iq.FU_type_0::FloatCvt               76975      1.66%     55.15% # Type of FU issued
system.cpu.iq.FU_type_0::FloatMult             257028      5.53%     60.68% # Type of FU issued
system.cpu.iq.FU_type_0::FloatMultAcc          811506     17.46%     78.13% # Type of FU issued
system.cpu.iq.FU_type_0::FloatDiv                   3      0.00%     78.13% # Type of FU issued
system.cpu.iq.FU_type_0::FloatMisc             176505      3.80%     81.93% # Type of FU issued
system.cpu.iq.FU_type_0::FloatSqrt                  0      0.00%     81.93% # Type of FU issued
system.cpu.iq.FU_type_0::SimdAdd                  442      0.01%     81.94% # Type of FU issued
system.cpu.iq.FU_type_0::SimdAddAcc                 0      0.00%     81.94% # Type of FU issued
system.cpu.iq.FU_type_0::SimdAlu                  566      0.01%     81.95% # Type of FU issued
system.cpu.iq.FU_type_0::SimdCmp                  521      0.01%     81.96% # Type of FU issued
system.cpu.iq.FU_type_0::SimdCvt                    0      0.00%     81.96% # Type of FU issued
system.cpu.iq.FU_type_0::SimdMisc                 532      0.01%     81.97% # Type of FU issued
system.cpu.iq.FU_type_0::SimdMult                   0      0.00%     81.97% # Type of FU issued
system.cpu.iq.FU_type_0::SimdMultAcc                0      0.00%     81.97% # Type of FU issued
system.cpu.iq.FU_type_0::SimdShift                  0      0.00%     81.97% # Type of FU issued
system.cpu.iq.FU_type_0::SimdShiftAcc               0      0.00%     81.97% # Type of FU issued
system.cpu.iq.FU_type_0::SimdDiv                    0      0.00%     81.97% # Type of FU issued
system.cpu.iq.FU_type_0::SimdSqrt                   0      0.00%     81.97% # Type of FU issued
system.cpu.iq.FU_type_0::SimdFloatAdd               0      0.00%     81.97% # Type of FU issued
system.cpu.iq.FU_type_0::SimdFloatAlu               0      0.00%     81.97% # Type of FU issued
system.cpu.iq.FU_type_0::SimdFloatCmp               0      0.00%     81.97% # Type of FU issued
system.cpu.iq.FU_type_0::SimdFloatCvt               0      0.00%     81.97% # Type of FU issued
system.cpu.iq.FU_type_0::SimdFloatDiv               0      0.00%     81.97% # Type of FU issued
system.cpu.iq.FU_type_0::SimdFloatMisc              0      0.00%     81.97% # Type of FU issued
system.cpu.iq.FU_type_0::SimdFloatMult              0      0.00%     81.97% # Type of FU issued
system.cpu.iq.FU_type_0::SimdFloatMultAcc            0      0.00%     81.97% # Type of FU issued
system.cpu.iq.FU_type_0::SimdFloatSqrt              0      0.00%     81.97% # Type of FU issued
system.cpu.iq.FU_type_0::SimdReduceAdd              0      0.00%     81.97% # Type of FU issued
system.cpu.iq.FU_type_0::SimdReduceAlu              0      0.00%     81.97% # Type of FU issued
system.cpu.iq.FU_type_0::SimdReduceCmp              0      0.00%     81.97% # Type of FU issued
system.cpu.iq.FU_type_0::SimdFloatReduceAdd            0      0.00%     81.97% # Type of FU issued
system.cpu.iq.FU_type_0::SimdFloatReduceCmp            0      0.00%     81.97% # Type of FU issued
system.cpu.iq.FU_type_0::SimdAes                    0      0.00%     81.97% # Type of FU issued
system.cpu.iq.FU_type_0::SimdAesMix                 0      0.00%     81.97% # Type of FU issued
system.cpu.iq.FU_type_0::SimdSha1Hash               0      0.00%     81.97% # Type of FU issued
system.cpu.iq.FU_type_0::SimdSha1Hash2              0      0.00%     81.97% # Type of FU issued
system.cpu.iq.FU_type_0::SimdSha256Hash             0      0.00%     81.97% # Type of FU issued
system.cpu.iq.FU_type_0::SimdSha256Hash2            0      0.00%     81.97% # Type of FU issued
system.cpu.iq.FU_type_0::SimdShaSigma2              0      0.00%     81.97% # Type of FU issued
system.cpu.iq.FU_type_0::SimdShaSigma3              0      0.00%     81.97% # Type of FU issued
system.cpu.iq.FU_type_0::SimdPredAlu                0      0.00%     81.97% # Type of FU issued
system.cpu.iq.FU_type_0::MemRead               612705     13.18%     95.15% # Type of FU issued
system.cpu.iq.FU_type_0::MemWrite              225229      4.85%    100.00% # Type of FU issued
system.cpu.iq.FU_type_0::FloatMemRead               0      0.00%    100.00% # Type of FU issued
system.cpu.iq.FU_type_0::FloatMemWrite              0      0.00%    100.00% # Type of FU issued
system.cpu.iq.FU_type_0::IprAccess                  0      0.00%    100.00% # Type of FU issued
system.cpu.iq.FU_type_0::InstPrefetch               0      0.00%    100.00% # Type of FU issued
system.cpu.iq.FU_type_0::total                4648572                       # Type of FU issued
system.cpu.iq.fp_alu_accesses                       0                       # Number of floating point alu accesses
system.cpu.iq.fp_inst_queue_reads                   0                       # Number of floating instruction queue reads
system.cpu.iq.fp_inst_queue_wakeup_accesses            0                       # Number of floating instruction queue wakeup accesses
system.cpu.iq.fp_inst_queue_writes                  0                       # Number of floating instruction queue writes
system.cpu.iq.fu_busy_cnt                      142580                       # FU busy when requested
system.cpu.iq.fu_busy_rate                   0.030672                       # FU busy rate (busy events/executed inst)
system.cpu.iq.fu_full::No_OpClass                   0      0.00%      0.00% # attempts to use FU when none available
system.cpu.iq.fu_full::IntAlu                       0      0.00%      0.00% # attempts to use FU when none available
system.cpu.iq.fu_full::IntMult                    439      0.31%      0.31% # attempts to use FU when none available
system.cpu.iq.fu_full::IntDiv                       0      0.00%      0.31% # attempts to use FU when none available
system.cpu.iq.fu_full::FloatAdd                     0      0.00%      0.31% # attempts to use FU when none available
system.cpu.iq.fu_full::FloatCmp                     0      0.00%      0.31% # attempts to use FU when none available
system.cpu.iq.fu_full::FloatCvt                     0      0.00%      0.31% # attempts to use FU when none available
system.cpu.iq.fu_full::FloatMult                71547     50.18%     50.49% # attempts to use FU when none available
system.cpu.iq.fu_full::FloatMultAcc             46845     32.86%     83.34% # attempts to use FU when none available
system.cpu.iq.fu_full::FloatDiv                     0      0.00%     83.34% # attempts to use FU when none available
system.cpu.iq.fu_full::FloatMisc                23749     16.66%    100.00% # attempts to use FU when none available
system.cpu.iq.fu_full::FloatSqrt                    0      0.00%    100.00% # attempts to use FU when none available
system.cpu.iq.fu_full::SimdAdd                      0      0.00%    100.00% # attempts to use FU when none available
system.cpu.iq.fu_full::SimdAddAcc                   0      0.00%    100.00% # attempts to use FU when none available
system.cpu.iq.fu_full::SimdAlu                      0      0.00%    100.00% # attempts to use FU when none available
system.cpu.iq.fu_full::SimdCmp                      0      0.00%    100.00% # attempts to use FU when none available
system.cpu.iq.fu_full::SimdCvt                      0      0.00%    100.00% # attempts to use FU when none available
system.cpu.iq.fu_full::SimdMisc                     0      0.00%    100.00% # attempts to use FU when none available
system.cpu.iq.fu_full::SimdMult                     0      0.00%    100.00% # attempts to use FU when none available
system.cpu.iq.fu_full::SimdMultAcc                  0      0.00%    100.00% # attempts to use FU when none available
system.cpu.iq.fu_full::SimdShift                    0      0.00%    100.00% # attempts to use FU when none available
system.cpu.iq.fu_full::SimdShiftAcc                 0      0.00%    100.00% # attempts to use FU when none available
system.cpu.iq.fu_full::SimdDiv                      0      0.00%    100.00% # attempts to use FU when none available
system.cpu.iq.fu_full::SimdSqrt                     0      0.00%    100.00% # attempts to use FU when none available
system.cpu.iq.fu_full::SimdFloatAdd                 0      0.00%    100.00% # attempts to use FU when none available
system.cpu.iq.fu_full::SimdFloatAlu                 0      0.00%    100.00% # attempts to use FU when none available
system.cpu.iq.fu_full::SimdFloatCmp                 0      0.00%    100.00% # attempts to use FU when none available
system.cpu.iq.fu_full::SimdFloatCvt                 0      0.00%    100.00% # attempts to use FU when none available
system.cpu.iq.fu_full::SimdFloatDiv                 0      0.00%    100.00% # attempts to use FU when none available
system.cpu.iq.fu_full::SimdFloatMisc                0      0.00%    100.00% # attempts to use FU when none available
system.cpu.iq.fu_full::SimdFloatMult                0      0.00%    100.00% # attempts to use FU when none available
system.cpu.iq.fu_full::SimdFloatMultAcc             0      0.00%    100.00% # attempts to use FU when none available
system.cpu.iq.fu_full::SimdFloatSqrt                0      0.00%    100.00% # attempts to use FU when none available
system.cpu.iq.fu_full::SimdReduceAdd                0      0.00%    100.00% # attempts to use FU when none available
system.cpu.iq.fu_full::SimdReduceAlu                0      0.00%    100.00% # attempts to use FU when none available
system.cpu.iq.fu_full::SimdReduceCmp                0      0.00%    100.00% # attempts to use FU when none available
system.cpu.iq.fu_full::SimdFloatReduceAdd            0      0.00%    100.00% # attempts to use FU when none available
system.cpu.iq.fu_full::SimdFloatReduceCmp            0      0.00%    100.00% # attempts to use FU when none available
system.cpu.iq.fu_full::SimdAes                      0      0.00%    100.00% # attempts to use FU when none available
system.cpu.iq.fu_full::SimdAesMix                   0      0.00%    100.00% # attempts to use FU when none available
system.cpu.iq.fu_full::SimdSha1Hash                 0      0.00%    100.00% # attempts to use FU when none available
system.cpu.iq.fu_full::SimdSha1Hash2                0      0.00%    100.00% # attempts to use FU when none available
system.cpu.iq.fu_full::SimdSha256Hash               0      0.00%    100.00% # attempts to use FU when none available
system.cpu.iq.fu_full::SimdSha256Hash2              0      0.00%    100.00% # attempts to use FU when none available
system.cpu.iq.fu_full::SimdShaSigma2                0      0.00%    100.00% # attempts to use FU when none available
system.cpu.iq.fu_full::SimdShaSigma3                0      0.00%    100.00% # attempts to use FU when none available
system.cpu.iq.fu_full::SimdPredAlu                  0      0.00%    100.00% # attempts to use FU when none available
system.cpu.iq.fu_full::MemRead                      0      0.00%    100.00% # attempts to use FU when none available
system.cpu.iq.fu_full::MemWrite                     0      0.00%    100.00% # attempts to use FU when none available
system.cpu.iq.fu_full::FloatMemRead                 0      0.00%    100.00% # attempts to use FU when none available
system.cpu.iq.fu_full::FloatMemWrite                0      0.00%    100.00% # attempts to use FU when none available
system.cpu.iq.fu_full::IprAccess                    0      0.00%    100.00% # attempts to use FU when none available
system.cpu.iq.fu_full::InstPrefetch                 0      0.00%    100.00% # attempts to use FU when none available
system.cpu.iq.int_alu_accesses                2441532                       # Number of integer alu accesses
system.cpu.iq.int_inst_queue_reads            6946902                       # Number of integer instruction queue reads
system.cpu.iq.int_inst_queue_wakeup_accesses      2417897                       # Number of integer instruction queue wakeup accesses
system.cpu.iq.int_inst_queue_writes           2578205                       # Number of integer instruction queue writes
system.cpu.iq.iqInstsAdded                    4576868                       # Number of instructions added to the IQ (excludes non-spec)
system.cpu.iq.iqInstsIssued                   4648572                       # Number of instructions issued
system.cpu.iq.iqNonSpecInstsAdded                 393                       # Number of non-speculative instructions added to the IQ
system.cpu.iq.iqSquashedInstsExamined          115397                       # Number of squashed instructions iterated over during squash; mainly for profiling
system.cpu.iq.iqSquashedInstsIssued              4550                       # Number of squashed instructions issued
system.cpu.iq.iqSquashedNonSpecRemoved             80                       # Number of squashed non-spec instructions that were removed
system.cpu.iq.iqSquashedOperandsExamined        82667                       # Number of squashed operands that are examined and possibly removed from graph
system.cpu.iq.issued_per_cycle::samples       2059835                       # Number of insts issued each cycle
system.cpu.iq.issued_per_cycle::mean         2.256769                       # Number of insts issued each cycle
system.cpu.iq.issued_per_cycle::stdev        1.646683                       # Number of insts issued each cycle
system.cpu.iq.issued_per_cycle::underflows            0      0.00%      0.00% # Number of insts issued each cycle
system.cpu.iq.issued_per_cycle::0              517545     25.13%     25.13% # Number of insts issued each cycle
system.cpu.iq.issued_per_cycle::1              298855     14.51%     39.63% # Number of insts issued each cycle
system.cpu.iq.issued_per_cycle::2              125236      6.08%     45.71% # Number of insts issued each cycle
system.cpu.iq.issued_per_cycle::3              373551     18.13%     63.85% # Number of insts issued each cycle
system.cpu.iq.issued_per_cycle::4              744648     36.15%    100.00% # Number of insts issued each cycle
system.cpu.iq.issued_per_cycle::overflows            0      0.00%    100.00% # Number of insts issued each cycle
system.cpu.iq.issued_per_cycle::min_value            0                       # Number of insts issued each cycle
system.cpu.iq.issued_per_cycle::max_value            4                       # Number of insts issued each cycle
system.cpu.iq.issued_per_cycle::total         2059835                       # Number of insts issued each cycle
system.cpu.iq.rate                           2.142319                       # Inst issue rate
system.cpu.iq.vec_alu_accesses                2349428                       # Number of vector alu accesses
system.cpu.iq.vec_inst_queue_reads            4557207                       # Number of vector instruction queue reads
system.cpu.iq.vec_inst_queue_wakeup_accesses      2112294                       # Number of vector instruction queue wakeup accesses
system.cpu.iq.vec_inst_queue_writes           2114526                       # Number of vector instruction queue writes
system.cpu.itb.accesses                             0                       # DTB accesses
system.cpu.itb.align_faults                         0                       # Number of TLB faults due to alignment restrictions
system.cpu.itb.domain_faults                        0                       # Number of TLB faults due to domain restrictions
system.cpu.itb.flush_entries                        0                       # Number of entries that have been flushed from TLB
system.cpu.itb.flush_tlb                            0                       # Number of times complete TLB was flushed
system.cpu.itb.flush_tlb_asid                       0                       # Number of times TLB was flushed by ASID
system.cpu.itb.flush_tlb_mva                        0                       # Number of times TLB was flushed by MVA
system.cpu.itb.flush_tlb_mva_asid                   0                       # Number of times TLB was flushed by MVA & ASID
system.cpu.itb.hits                                 0                       # DTB hits
system.cpu.itb.inst_accesses                        0                       # ITB inst accesses
system.cpu.itb.inst_hits                            0                       # ITB inst hits
system.cpu.itb.inst_misses                          0                       # ITB inst misses
system.cpu.itb.misses                               0                       # DTB misses
system.cpu.itb.perms_faults                         0                       # Number of TLB faults due to permissions restrictions
system.cpu.itb.prefetch_faults                      0                       # Number of TLB faults due to prefetch
system.cpu.itb.read_accesses                        0                       # DTB read accesses
system.cpu.itb.read_hits                            0                       # DTB read hits
system.cpu.itb.read_misses                          0                       # DTB read misses
system.cpu.itb.stage2_mmu.stage2_tlb.accesses            0                       # DTB accesses
system.cpu.itb.stage2_mmu.stage2_tlb.align_faults            0                       # Number of TLB faults due to alignment restrictions
system.cpu.itb.stage2_mmu.stage2_tlb.domain_faults            0                       # Number of TLB faults due to domain restrictions
system.cpu.itb.stage2_mmu.stage2_tlb.flush_entries            0                       # Number of entries that have been flushed from TLB
system.cpu.itb.stage2_mmu.stage2_tlb.flush_tlb            0                       # Number of times complete TLB was flushed
system.cpu.itb.stage2_mmu.stage2_tlb.flush_tlb_asid            0                       # Number of times TLB was flushed by ASID
system.cpu.itb.stage2_mmu.stage2_tlb.flush_tlb_mva            0                       # Number of times TLB was flushed by MVA
system.cpu.itb.stage2_mmu.stage2_tlb.flush_tlb_mva_asid            0                       # Number of times TLB was flushed by MVA & ASID
system.cpu.itb.stage2_mmu.stage2_tlb.hits            0                       # DTB hits
system.cpu.itb.stage2_mmu.stage2_tlb.inst_accesses            0                       # ITB inst accesses
system.cpu.itb.stage2_mmu.stage2_tlb.inst_hits            0                       # ITB inst hits
system.cpu.itb.stage2_mmu.stage2_tlb.inst_misses            0                       # ITB inst misses
system.cpu.itb.stage2_mmu.stage2_tlb.misses            0                       # DTB misses
system.cpu.itb.stage2_mmu.stage2_tlb.perms_faults            0                       # Number of TLB faults due to permissions restrictions
system.cpu.itb.stage2_mmu.stage2_tlb.prefetch_faults            0                       # Number of TLB faults due to prefetch
system.cpu.itb.stage2_mmu.stage2_tlb.read_accesses            0                       # DTB read accesses
system.cpu.itb.stage2_mmu.stage2_tlb.read_hits            0                       # DTB read hits
system.cpu.itb.stage2_mmu.stage2_tlb.read_misses            0                       # DTB read misses
system.cpu.itb.stage2_mmu.stage2_tlb.walker.walkRequestOrigin_Requested::Data            0                       # Table walker requests started/completed, data/inst
system.cpu.itb.stage2_mmu.stage2_tlb.walker.walkRequestOrigin_Requested::Inst            0                       # Table walker requests started/completed, data/inst
system.cpu.itb.stage2_mmu.stage2_tlb.walker.walkRequestOrigin_Requested::total            0                       # Table walker requests started/completed, data/inst
system.cpu.itb.stage2_mmu.stage2_tlb.walker.walkRequestOrigin_Completed::Data            0                       # Table walker requests started/completed, data/inst
system.cpu.itb.stage2_mmu.stage2_tlb.walker.walkRequestOrigin_Completed::Inst            0                       # Table walker requests started/completed, data/inst
system.cpu.itb.stage2_mmu.stage2_tlb.walker.walkRequestOrigin_Completed::total            0                       # Table walker requests started/completed, data/inst
system.cpu.itb.stage2_mmu.stage2_tlb.walker.walkRequestOrigin::total            0                       # Table walker requests started/completed, data/inst
system.cpu.itb.stage2_mmu.stage2_tlb.walker.walks            0                       # Table walker walks requested
system.cpu.itb.stage2_mmu.stage2_tlb.write_accesses            0                       # DTB write accesses
system.cpu.itb.stage2_mmu.stage2_tlb.write_hits            0                       # DTB write hits
system.cpu.itb.stage2_mmu.stage2_tlb.write_misses            0                       # DTB write misses
system.cpu.itb.walker.walkRequestOrigin_Requested::Data            0                       # Table walker requests started/completed, data/inst
system.cpu.itb.walker.walkRequestOrigin_Requested::Inst            0                       # Table walker requests started/completed, data/inst
system.cpu.itb.walker.walkRequestOrigin_Requested::total            0                       # Table walker requests started/completed, data/inst
system.cpu.itb.walker.walkRequestOrigin_Completed::Data            0                       # Table walker requests started/completed, data/inst
system.cpu.itb.walker.walkRequestOrigin_Completed::Inst            0                       # Table walker requests started/completed, data/inst
system.cpu.itb.walker.walkRequestOrigin_Completed::total            0                       # Table walker requests started/completed, data/inst
system.cpu.itb.walker.walkRequestOrigin::total            0                       # Table walker requests started/completed, data/inst
system.cpu.itb.walker.walks                         0                       # Table walker walks requested
system.cpu.itb.write_accesses                       0                       # DTB write accesses
system.cpu.itb.write_hits                           0                       # DTB write hits
system.cpu.itb.write_misses                         0                       # DTB write misses
system.cpu.memDep0.conflictingLoads              1890                       # Number of conflicting loads.
system.cpu.memDep0.conflictingStores             1813                       # Number of conflicting stores.
system.cpu.memDep0.insertedLoads               514435                       # Number of loads inserted to the mem dependence unit.
system.cpu.memDep0.insertedStores              229883                       # Number of stores inserted to the mem dependence unit.
system.cpu.misc_regfile_reads                 8172676                       # number of misc regfile reads
system.cpu.misc_regfile_writes                1480611                       # number of misc regfile writes
system.cpu.numCycles                          2169879                       # number of cpu cycles simulated
system.cpu.numWorkItemsCompleted                    0                       # number of work items this cpu completed
system.cpu.numWorkItemsStarted                      0                       # number of work items this cpu started
system.cpu.rename.BlockCycles                   40727                       # Number of cycles rename is blocking
system.cpu.rename.CommittedMaps               6322780                       # Number of HB maps that are committed
system.cpu.rename.IQFullEvents                 238364                       # Number of times rename has blocked due to IQ full
system.cpu.rename.IdleCycles                   599920                       # Number of cycles rename is idle
system.cpu.rename.LQFullEvents                    201                       # Number of times rename has blocked due to LQ full
system.cpu.rename.ROBFullEvents                   165                       # Number of times rename has blocked due to ROB full
system.cpu.rename.RenameLookups              13696653                       # Number of register rename lookups that rename has made
system.cpu.rename.RenamedInsts                4595585                       # Number of instructions processed by rename
system.cpu.rename.RenamedOperands             6464916                       # Number of destination operands rename has renamed
system.cpu.rename.RunCycles                    787915                       # Number of cycles rename is running
system.cpu.rename.SQFullEvents                 295391                       # Number of times rename has blocked due to SQ full
system.cpu.rename.SquashCycles                   4115                       # Number of cycles rename is squashing
system.cpu.rename.UnblockCycles                599778                       # Number of cycles rename is unblocking
system.cpu.rename.UndoneMaps                   142136                       # Number of HB maps that are undone due to squashing
system.cpu.rename.int_rename_lookups          3334336                       # Number of integer rename lookups
system.cpu.rename.serializeStallCycles          27380                       # count of cycles rename stalled for serializing inst
system.cpu.rename.serializingInsts               1270                       # count of serializing insts renamed
system.cpu.rename.skidInsts                    885894                       # count of insts added to the skid buffer
system.cpu.rename.tempSerializingInsts            392                       # count of temporary serializing insts renamed
system.cpu.rename.vec_rename_lookups          3741681                       # Number of vector rename lookups
system.cpu.rob.rob_reads                      6244278                       # The number of ROB reads
system.cpu.rob.rob_writes                     9161098                       # The number of ROB writes
system.cpu.timesIdled                            1584                       # Number of times that the entire CPU went into an idle state and unscheduled itself
system.cpu.vec_regfile_reads                  3740039                       # number of vector regfile reads
system.cpu.vec_regfile_writes                 2150601                       # number of vector regfile writes
system.cpu.workload.numSyscalls                    34                       # Number of system calls
system.membus.snoop_filter.hit_multi_requests            0                       # Number of requests hitting in the snoop filter with multiple (>1) holders of the requested data.
system.membus.snoop_filter.hit_multi_snoops            0                       # Number of snoops hitting in the snoop filter with multiple (>1) holders of the requested data.
system.membus.snoop_filter.hit_single_requests            0                       # Number of requests hitting in the snoop filter with a single holder of the requested data.
system.membus.snoop_filter.hit_single_snoops            0                       # Number of snoops hitting in the snoop filter with a single holder of the requested data.
system.membus.snoop_filter.tot_requests         19866                       # Total number of requests made to the snoop filter.
system.membus.snoop_filter.tot_snoops               0                       # Total number of snoops made to the snoop filter.
system.tol2bus.snoop_filter.hit_multi_requests            1                       # Number of requests hitting in the snoop filter with multiple (>1) holders of the requested data.
system.tol2bus.snoop_filter.hit_multi_snoops            0                       # Number of snoops hitting in the snoop filter with multiple (>1) holders of the requested data.
system.tol2bus.snoop_filter.hit_single_requests        21714                       # Number of requests hitting in the snoop filter with a single holder of the requested data.
system.tol2bus.snoop_filter.hit_single_snoops            0                       # Number of snoops hitting in the snoop filter with a single holder of the requested data.
system.tol2bus.snoop_filter.tot_requests        44451                       # Total number of requests made to the snoop filter.
system.tol2bus.snoop_filter.tot_snoops              0                       # Total number of snoops made to the snoop filter.
system.membus.trans_dist::ReadResp               1725                       # Transaction distribution
system.membus.trans_dist::ReadExReq             16972                       # Transaction distribution
system.membus.trans_dist::ReadExResp            16972                       # Transaction distribution
system.membus.trans_dist::ReadSharedReq          1725                       # Transaction distribution
system.membus.trans_dist::InvalidateReq          1169                       # Transaction distribution
system.membus.pkt_count_system.l2.mem_side::system.mem_ctrls.port        38563                       # Packet count per connected master and slave (bytes)
system.membus.pkt_count::total                  38563                       # Packet count per connected master and slave (bytes)
system.membus.pkt_size_system.l2.mem_side::system.mem_ctrls.port      1196608                       # Cumulative packet size per connected master and slave (bytes)
system.membus.pkt_size::total                 1196608                       # Cumulative packet size per connected master and slave (bytes)
system.membus.snoops                                0                       # Total snoops (count)
system.membus.snoopTraffic                          0                       # Total snoop traffic (bytes)
system.membus.snoop_fanout::samples             19866                       # Request fanout histogram
system.membus.snoop_fanout::mean                    0                       # Request fanout histogram
system.membus.snoop_fanout::stdev                   0                       # Request fanout histogram
system.membus.snoop_fanout::underflows              0      0.00%      0.00% # Request fanout histogram
system.membus.snoop_fanout::0                   19866    100.00%    100.00% # Request fanout histogram
system.membus.snoop_fanout::1                       0      0.00%    100.00% # Request fanout histogram
system.membus.snoop_fanout::overflows               0      0.00%    100.00% # Request fanout histogram
system.membus.snoop_fanout::min_value               0                       # Request fanout histogram
system.membus.snoop_fanout::max_value               0                       # Request fanout histogram
system.membus.snoop_fanout::total               19866                       # Request fanout histogram
system.membus.reqLayer0.occupancy            22146500                       # Layer occupancy (ticks)
system.membus.reqLayer0.utilization               2.0                       # Layer utilization (%)
system.membus.respLayer1.occupancy           97986500                       # Layer occupancy (ticks)
system.membus.respLayer1.utilization              9.0                       # Layer utilization (%)
system.membus.power_state.pwrStateResidencyTicks::UNDEFINED   1084938500                       # Cumulative time (in ticks) in various power states
system.tol2bus.trans_dist::ReadResp              3522                       # Transaction distribution
system.tol2bus.trans_dist::WritebackDirty        18954                       # Transaction distribution
system.tol2bus.trans_dist::WritebackClean         2290                       # Transaction distribution
system.tol2bus.trans_dist::CleanEvict             470                       # Transaction distribution
system.tol2bus.trans_dist::ReadExReq            17995                       # Transaction distribution
system.tol2bus.trans_dist::ReadExResp           17995                       # Transaction distribution
system.tol2bus.trans_dist::ReadCleanReq          2801                       # Transaction distribution
system.tol2bus.trans_dist::ReadSharedReq          722                       # Transaction distribution
system.tol2bus.trans_dist::InvalidateReq         1219                       # Transaction distribution
system.tol2bus.trans_dist::InvalidateResp         1219                       # Transaction distribution
system.tol2bus.pkt_count_system.cpu.icache.mem_side::system.l2.cpu_side         7891                       # Packet count per connected master and slave (bytes)
system.tol2bus.pkt_count_system.cpu.dcache.mem_side::system.l2.cpu_side        59296                       # Packet count per connected master and slave (bytes)
system.tol2bus.pkt_count::total                 67187                       # Packet count per connected master and slave (bytes)
system.tol2bus.pkt_size_system.cpu.icache.mem_side::system.l2.cpu_side       325760                       # Cumulative packet size per connected master and slave (bytes)
system.tol2bus.pkt_size_system.cpu.dcache.mem_side::system.l2.cpu_side      2410944                       # Cumulative packet size per connected master and slave (bytes)
system.tol2bus.pkt_size::total                2736704                       # Cumulative packet size per connected master and slave (bytes)
system.tol2bus.snoops                               0                       # Total snoops (count)
system.tol2bus.snoopTraffic                         0                       # Total snoop traffic (bytes)
system.tol2bus.snoop_fanout::samples            22737                       # Request fanout histogram
system.tol2bus.snoop_fanout::mean            0.000044                       # Request fanout histogram
system.tol2bus.snoop_fanout::stdev           0.006632                       # Request fanout histogram
system.tol2bus.snoop_fanout::underflows             0      0.00%      0.00% # Request fanout histogram
system.tol2bus.snoop_fanout::0                  22736    100.00%    100.00% # Request fanout histogram
system.tol2bus.snoop_fanout::1                      1      0.00%    100.00% # Request fanout histogram
system.tol2bus.snoop_fanout::2                      0      0.00%    100.00% # Request fanout histogram
system.tol2bus.snoop_fanout::overflows              0      0.00%    100.00% # Request fanout histogram
system.tol2bus.snoop_fanout::min_value              0                       # Request fanout histogram
system.tol2bus.snoop_fanout::max_value              1                       # Request fanout histogram
system.tol2bus.snoop_fanout::total              22737                       # Request fanout histogram
system.tol2bus.reqLayer0.occupancy           43469500                       # Layer occupancy (ticks)
system.tol2bus.reqLayer0.utilization              4.0                       # Layer utilization (%)
system.tol2bus.respLayer1.occupancy          28686996                       # Layer occupancy (ticks)
system.tol2bus.respLayer1.utilization             2.6                       # Layer utilization (%)
system.tol2bus.respLayer0.occupancy           4200998                       # Layer occupancy (ticks)
system.tol2bus.respLayer0.utilization             0.4                       # Layer utilization (%)
system.tol2bus.power_state.pwrStateResidencyTicks::UNDEFINED   1084938500                       # Cumulative time (in ticks) in various power states
system.voltage_domain.voltage                       1                       # Voltage in Volts
system.clk_domain.clock                          1000                       # Clock period in ticks
system.l2.demand_hits::.cpu.inst                 1435                       # number of demand (read+write) hits
system.l2.demand_hits::.cpu.data                 1385                       # number of demand (read+write) hits
system.l2.demand_hits::total                     2820                       # number of demand (read+write) hits
system.l2.overall_hits::.cpu.inst                1435                       # number of overall hits
system.l2.overall_hits::.cpu.data                1385                       # number of overall hits
system.l2.overall_hits::total                    2820                       # number of overall hits
system.l2.demand_misses::.cpu.inst               1366                       # number of demand (read+write) misses
system.l2.demand_misses::.cpu.data              17332                       # number of demand (read+write) misses
system.l2.demand_misses::total                  18698                       # number of demand (read+write) misses
system.l2.overall_misses::.cpu.inst              1366                       # number of overall misses
system.l2.overall_misses::.cpu.data             17332                       # number of overall misses
system.l2.overall_misses::total                 18698                       # number of overall misses
system.l2.demand_miss_latency::.cpu.inst    105948500                       # number of demand (read+write) miss cycles
system.l2.demand_miss_latency::.cpu.data   1283492500                       # number of demand (read+write) miss cycles
system.l2.demand_miss_latency::total       1389441000                       # number of demand (read+write) miss cycles
system.l2.overall_miss_latency::.cpu.inst    105948500                       # number of overall miss cycles
system.l2.overall_miss_latency::.cpu.data   1283492500                       # number of overall miss cycles
system.l2.overall_miss_latency::total      1389441000                       # number of overall miss cycles
system.l2.demand_accesses::.cpu.inst             2801                       # number of demand (read+write) accesses
system.l2.demand_accesses::.cpu.data            18717                       # number of demand (read+write) accesses
system.l2.demand_accesses::total                21518                       # number of demand (read+write) accesses
system.l2.overall_accesses::.cpu.inst            2801                       # number of overall (read+write) accesses
system.l2.overall_accesses::.cpu.data           18717                       # number of overall (read+write) accesses
system.l2.overall_accesses::total               21518                       # number of overall (read+write) accesses
system.l2.demand_miss_rate::.cpu.inst        0.487683                       # miss rate for demand accesses
system.l2.demand_miss_rate::.cpu.data        0.926003                       # miss rate for demand accesses
system.l2.demand_miss_rate::total            0.868947                       # miss rate for demand accesses
system.l2.overall_miss_rate::.cpu.inst       0.487683                       # miss rate for overall accesses
system.l2.overall_miss_rate::.cpu.data       0.926003                       # miss rate for overall accesses
system.l2.overall_miss_rate::total           0.868947                       # miss rate for overall accesses
[...]
system.cpu.dcache.overall_miss_latency::total   8531092935                       # number of overall miss cycles
system.cpu.dcache.demand_accesses::.cpu.data       736868                       # number of demand (read+write) accesses
system.cpu.dcache.demand_accesses::total       736868                       # number of demand (read+write) accesses
system.cpu.dcache.overall_accesses::.cpu.data       737241                       # number of overall (read+write) accesses
system.cpu.dcache.overall_accesses::total       737241                       # number of overall (read+write) accesses
system.cpu.dcache.demand_miss_rate::.cpu.data     0.190350                       # miss rate for demand accesses
system.cpu.dcache.demand_miss_rate::total     0.190350                       # miss rate for demand accesses
system.cpu.dcache.overall_miss_rate::.cpu.data     0.190276                       # miss rate for overall accesses
system.cpu.dcache.overall_miss_rate::total     0.190276                       # miss rate for overall accesses
system.cpu.dcache.demand_avg_miss_latency::.cpu.data 60822.119411                       # average overall miss latency
system.cpu.dcache.demand_avg_miss_latency::total 60822.119411                       # average overall miss latency
system.cpu.dcache.overall_avg_miss_latency::.cpu.data 60815.182137                       # average overall miss latency
system.cpu.dcache.overall_avg_miss_latency::total 60815.182137                       # average overall miss latency
system.cpu.dcache.blocked_cycles::no_mshrs       539999                       # number of cycles access was blocked
system.cpu.dcache.blocked_cycles::no_targets            5                       # number of cycles access was blocked
system.cpu.dcache.blocked::no_mshrs             16160                       # number of cycles access was blocked
system.cpu.dcache.blocked::no_targets               1                       # number of cycles access was blocked
system.cpu.dcache.avg_blocked_cycles::no_mshrs    33.415780                       # average number of cycles each access was blocked
system.cpu.dcache.avg_blocked_cycles::no_targets            5                       # average number of cycles each access was blocked
system.cpu.dcache.writebacks::.writebacks        18954                       # number of writebacks
system.cpu.dcache.writebacks::total             18954                       # number of writebacks
system.cpu.dcache.demand_mshr_hits::.cpu.data       120337                       # number of demand (read+write) MSHR hits
system.cpu.dcache.demand_mshr_hits::total       120337                       # number of demand (read+write) MSHR hits
system.cpu.dcache.overall_mshr_hits::.cpu.data       120337                       # number of overall MSHR hits
system.cpu.dcache.overall_mshr_hits::total       120337                       # number of overall MSHR hits
system.cpu.dcache.demand_mshr_misses::.cpu.data        19926                       # number of demand (read+write) MSHR misses
system.cpu.dcache.demand_mshr_misses::total        19926                       # number of demand (read+write) MSHR misses
system.cpu.dcache.overall_mshr_misses::.cpu.data        19933                       # number of overall MSHR misses
system.cpu.dcache.overall_mshr_misses::total        19933                       # number of overall MSHR misses
system.cpu.dcache.demand_mshr_miss_latency::.cpu.data   1363898048                       # number of demand (read+write) MSHR miss cycles
system.cpu.dcache.demand_mshr_miss_latency::total   1363898048                       # number of demand (read+write) MSHR miss cycles
system.cpu.dcache.overall_mshr_miss_latency::.cpu.data   1364193548                       # number of overall MSHR miss cycles
system.cpu.dcache.overall_mshr_miss_latency::total   1364193548                       # number of overall MSHR miss cycles
system.cpu.dcache.demand_mshr_miss_rate::.cpu.data     0.027041                       # mshr miss rate for demand accesses
system.cpu.dcache.demand_mshr_miss_rate::total     0.027041                       # mshr miss rate for demand accesses
system.cpu.dcache.overall_mshr_miss_rate::.cpu.data     0.027037                       # mshr miss rate for overall accesses
system.cpu.dcache.overall_mshr_miss_rate::total     0.027037                       # mshr miss rate for overall accesses
system.cpu.dcache.demand_avg_mshr_miss_latency::.cpu.data 68448.160594                       # average overall mshr miss latency
system.cpu.dcache.demand_avg_mshr_miss_latency::total 68448.160594                       # average overall mshr miss latency
system.cpu.dcache.overall_avg_mshr_miss_latency::.cpu.data 68438.947875                       # average overall mshr miss latency
system.cpu.dcache.overall_avg_mshr_miss_latency::total 68438.947875                       # average overall mshr miss latency
system.cpu.dcache.replacements                  19424                       # number of replacements
system.cpu.dcache.ReadReq_hits::.cpu.data       521779                       # number of ReadReq hits
system.cpu.dcache.ReadReq_hits::total          521779                       # number of ReadReq hits
system.cpu.dcache.ReadReq_misses::.cpu.data         2002                       # number of ReadReq misses
system.cpu.dcache.ReadReq_misses::total          2002                       # number of ReadReq misses
system.cpu.dcache.ReadReq_miss_latency::.cpu.data    109092000                       # number of ReadReq miss cycles
system.cpu.dcache.ReadReq_miss_latency::total    109092000                       # number of ReadReq miss cycles
system.cpu.dcache.ReadReq_accesses::.cpu.data       523781                       # number of ReadReq accesses(hits+misses)
system.cpu.dcache.ReadReq_accesses::total       523781                       # number of ReadReq accesses(hits+misses)
system.cpu.dcache.ReadReq_miss_rate::.cpu.data     0.003822                       # miss rate for ReadReq accesses
system.cpu.dcache.ReadReq_miss_rate::total     0.003822                       # miss rate for ReadReq accesses
system.cpu.dcache.ReadReq_avg_miss_latency::.cpu.data 54491.508492                       # average ReadReq miss latency
system.cpu.dcache.ReadReq_avg_miss_latency::total 54491.508492                       # average ReadReq miss latency
system.cpu.dcache.ReadReq_mshr_hits::.cpu.data         1290                       # number of ReadReq MSHR hits
system.cpu.dcache.ReadReq_mshr_hits::total         1290                       # number of ReadReq MSHR hits
system.cpu.dcache.ReadReq_mshr_misses::.cpu.data          712                       # number of ReadReq MSHR misses
system.cpu.dcache.ReadReq_mshr_misses::total          712                       # number of ReadReq MSHR misses
system.cpu.dcache.ReadReq_mshr_miss_latency::.cpu.data     34535000                       # number of ReadReq MSHR miss cycles
system.cpu.dcache.ReadReq_mshr_miss_latency::total     34535000                       # number of ReadReq MSHR miss cycles
system.cpu.dcache.ReadReq_mshr_miss_rate::.cpu.data     0.001359                       # mshr miss rate for ReadReq accesses
system.cpu.dcache.ReadReq_mshr_miss_rate::total     0.001359                       # mshr miss rate for ReadReq accesses
system.cpu.dcache.ReadReq_avg_mshr_miss_latency::.cpu.data 48504.213483                       # average ReadReq mshr miss latency
system.cpu.dcache.ReadReq_avg_mshr_miss_latency::total 48504.213483                       # average ReadReq mshr miss latency
system.cpu.dcache.WriteReq_hits::.cpu.data        74783                       # number of WriteReq hits
system.cpu.dcache.WriteReq_hits::total          74783                       # number of WriteReq hits
system.cpu.dcache.WriteReq_misses::.cpu.data       137043                       # number of WriteReq misses
system.cpu.dcache.WriteReq_misses::total       137043                       # number of WriteReq misses
system.cpu.dcache.WriteReq_miss_latency::.cpu.data   8383166371                       # number of WriteReq miss cycles
system.cpu.dcache.WriteReq_miss_latency::total   8383166371                       # number of WriteReq miss cycles
system.cpu.dcache.WriteReq_accesses::.cpu.data       211826                       # number of WriteReq accesses(hits+misses)
system.cpu.dcache.WriteReq_accesses::total       211826                       # number of WriteReq accesses(hits+misses)
system.cpu.dcache.WriteReq_miss_rate::.cpu.data     0.646960                       # miss rate for WriteReq accesses
system.cpu.dcache.WriteReq_miss_rate::total     0.646960                       # miss rate for WriteReq accesses
system.cpu.dcache.WriteReq_avg_miss_latency::.cpu.data 61171.795502                       # average WriteReq miss latency
system.cpu.dcache.WriteReq_avg_miss_latency::total 61171.795502                       # average WriteReq miss latency
system.cpu.dcache.WriteReq_mshr_hits::.cpu.data       119047                       # number of WriteReq MSHR hits
system.cpu.dcache.WriteReq_mshr_hits::total       119047                       # number of WriteReq MSHR hits
system.cpu.dcache.WriteReq_mshr_misses::.cpu.data        17996                       # number of WriteReq MSHR misses
system.cpu.dcache.WriteReq_mshr_misses::total        17996                       # number of WriteReq MSHR misses
system.cpu.dcache.WriteReq_mshr_miss_latency::.cpu.data   1291746484                       # number of WriteReq MSHR miss cycles
system.cpu.dcache.WriteReq_mshr_miss_latency::total   1291746484                       # number of WriteReq MSHR miss cycles
system.cpu.dcache.WriteReq_mshr_miss_rate::.cpu.data     0.084957                       # mshr miss rate for WriteReq accesses
system.cpu.dcache.WriteReq_mshr_miss_rate::total     0.084957                       # mshr miss rate for WriteReq accesses
system.cpu.dcache.WriteReq_avg_mshr_miss_latency::.cpu.data 71779.644588                       # average WriteReq mshr miss latency
system.cpu.dcache.WriteReq_avg_mshr_miss_latency::total 71779.644588                       # average WriteReq mshr miss latency
system.cpu.dcache.SoftPFReq_hits::.cpu.data          357                       # number of SoftPFReq hits
system.cpu.dcache.SoftPFReq_hits::total           357                       # number of SoftPFReq hits
system.cpu.dcache.SoftPFReq_misses::.cpu.data           16                       # number of SoftPFReq misses
system.cpu.dcache.SoftPFReq_misses::total           16                       # number of SoftPFReq misses
system.cpu.dcache.SoftPFReq_accesses::.cpu.data          373                       # number of SoftPFReq accesses(hits+misses)
system.cpu.dcache.SoftPFReq_accesses::total          373                       # number of SoftPFReq accesses(hits+misses)
system.cpu.dcache.SoftPFReq_miss_rate::.cpu.data     0.042895                       # miss rate for SoftPFReq accesses
system.cpu.dcache.SoftPFReq_miss_rate::total     0.042895                       # miss rate for SoftPFReq accesses
system.cpu.dcache.SoftPFReq_mshr_misses::.cpu.data            7                       # number of SoftPFReq MSHR misses
system.cpu.dcache.SoftPFReq_mshr_misses::total            7                       # number of SoftPFReq MSHR misses
system.cpu.dcache.SoftPFReq_mshr_miss_latency::.cpu.data       295500                       # number of SoftPFReq MSHR miss cycles
system.cpu.dcache.SoftPFReq_mshr_miss_latency::total       295500                       # number of SoftPFReq MSHR miss cycles
system.cpu.dcache.SoftPFReq_mshr_miss_rate::.cpu.data     0.018767                       # mshr miss rate for SoftPFReq accesses
system.cpu.dcache.SoftPFReq_mshr_miss_rate::total     0.018767                       # mshr miss rate for SoftPFReq accesses
system.cpu.dcache.SoftPFReq_avg_mshr_miss_latency::.cpu.data 42214.285714                       # average SoftPFReq mshr miss latency
system.cpu.dcache.SoftPFReq_avg_mshr_miss_latency::total 42214.285714                       # average SoftPFReq mshr miss latency
system.cpu.dcache.WriteLineReq_hits::.cpu.data           43                       # number of WriteLineReq hits
system.cpu.dcache.WriteLineReq_hits::total           43                       # number of WriteLineReq hits
system.cpu.dcache.WriteLineReq_misses::.cpu.data         1218                       # number of WriteLineReq misses
system.cpu.dcache.WriteLineReq_misses::total         1218                       # number of WriteLineReq misses
system.cpu.dcache.WriteLineReq_miss_latency::.cpu.data     38834564                       # number of WriteLineReq miss cycles
system.cpu.dcache.WriteLineReq_miss_latency::total     38834564                       # number of WriteLineReq miss cycles
system.cpu.dcache.WriteLineReq_accesses::.cpu.data         1261                       # number of WriteLineReq accesses(hits+misses)
system.cpu.dcache.WriteLineReq_accesses::total         1261                       # number of WriteLineReq accesses(hits+misses)
system.cpu.dcache.WriteLineReq_miss_rate::.cpu.data     0.965900                       # miss rate for WriteLineReq accesses
system.cpu.dcache.WriteLineReq_miss_rate::total     0.965900                       # miss rate for WriteLineReq accesses
system.cpu.dcache.WriteLineReq_avg_miss_latency::.cpu.data 31883.878489                       # average WriteLineReq miss latency
system.cpu.dcache.WriteLineReq_avg_miss_latency::total 31883.878489                       # average WriteLineReq miss latency
system.cpu.dcache.WriteLineReq_mshr_misses::.cpu.data         1218                       # number of WriteLineReq MSHR misses
system.cpu.dcache.WriteLineReq_mshr_misses::total         1218                       # number of WriteLineReq MSHR misses
system.cpu.dcache.WriteLineReq_mshr_miss_latency::.cpu.data     37616564                       # number of WriteLineReq MSHR miss cycles
system.cpu.dcache.WriteLineReq_mshr_miss_latency::total     37616564                       # number of WriteLineReq MSHR miss cycles
system.cpu.dcache.WriteLineReq_mshr_miss_rate::.cpu.data     0.965900                       # mshr miss rate for WriteLineReq accesses
system.cpu.dcache.WriteLineReq_mshr_miss_rate::total     0.965900                       # mshr miss rate for WriteLineReq accesses
system.cpu.dcache.WriteLineReq_avg_mshr_miss_latency::.cpu.data 30883.878489                       # average WriteLineReq mshr miss latency
system.cpu.dcache.WriteLineReq_avg_mshr_miss_latency::total 30883.878489                       # average WriteLineReq mshr miss latency
system.cpu.dcache.LoadLockedReq_hits::.cpu.data          302                       # number of LoadLockedReq hits
system.cpu.dcache.LoadLockedReq_hits::total          302                       # number of LoadLockedReq hits
system.cpu.dcache.LoadLockedReq_misses::.cpu.data            8                       # number of LoadLockedReq misses
system.cpu.dcache.LoadLockedReq_misses::total            8                       # number of LoadLockedReq misses
system.cpu.dcache.LoadLockedReq_miss_latency::.cpu.data       275500                       # number of LoadLockedReq miss cycles
system.cpu.dcache.LoadLockedReq_miss_latency::total       275500                       # number of LoadLockedReq miss cycles
system.cpu.dcache.LoadLockedReq_accesses::.cpu.data          310                       # number of LoadLockedReq accesses(hits+misses)
system.cpu.dcache.LoadLockedReq_accesses::total          310                       # number of LoadLockedReq accesses(hits+misses)
system.cpu.dcache.LoadLockedReq_miss_rate::.cpu.data     0.025806                       # miss rate for LoadLockedReq accesses
system.cpu.dcache.LoadLockedReq_miss_rate::total     0.025806                       # miss rate for LoadLockedReq accesses
system.cpu.dcache.LoadLockedReq_avg_miss_latency::.cpu.data 34437.500000                       # average LoadLockedReq miss latency
system.cpu.dcache.LoadLockedReq_avg_miss_latency::total 34437.500000                       # average LoadLockedReq miss latency
system.cpu.dcache.LoadLockedReq_mshr_hits::.cpu.data            5                       # number of LoadLockedReq MSHR hits
system.cpu.dcache.LoadLockedReq_mshr_hits::total            5                       # number of LoadLockedReq MSHR hits
system.cpu.dcache.LoadLockedReq_mshr_misses::.cpu.data            3                       # number of LoadLockedReq MSHR misses
system.cpu.dcache.LoadLockedReq_mshr_misses::total            3                       # number of LoadLockedReq MSHR misses
system.cpu.dcache.LoadLockedReq_mshr_miss_latency::.cpu.data       201000                       # number of LoadLockedReq MSHR miss cycles
system.cpu.dcache.LoadLockedReq_mshr_miss_latency::total       201000                       # number of LoadLockedReq MSHR miss cycles
system.cpu.dcache.LoadLockedReq_mshr_miss_rate::.cpu.data     0.009677                       # mshr miss rate for LoadLockedReq accesses
system.cpu.dcache.LoadLockedReq_mshr_miss_rate::total     0.009677                       # mshr miss rate for LoadLockedReq accesses
system.cpu.dcache.LoadLockedReq_avg_mshr_miss_latency::.cpu.data        67000                       # average LoadLockedReq mshr miss latency
system.cpu.dcache.LoadLockedReq_avg_mshr_miss_latency::total        67000                       # average LoadLockedReq mshr miss latency
system.cpu.dcache.StoreCondReq_hits::.cpu.data          278                       # number of StoreCondReq hits
system.cpu.dcache.StoreCondReq_hits::total          278                       # number of StoreCondReq hits
system.cpu.dcache.StoreCondReq_accesses::.cpu.data          278                       # number of StoreCondReq accesses(hits+misses)
system.cpu.dcache.StoreCondReq_accesses::total          278                       # number of StoreCondReq accesses(hits+misses)
system.cpu.dcache.power_state.pwrStateResidencyTicks::UNDEFINED   1084938500                       # Cumulative time (in ticks) in various power states
system.cpu.dcache.tags.tagsinuse           463.947013                       # Cycle average of tags in use
system.cpu.dcache.tags.total_refs              617478                       # Total number of references to valid blocks.
system.cpu.dcache.tags.sampled_refs             19936                       # Sample count of references to valid blocks.
system.cpu.dcache.tags.avg_refs             30.973014                       # Average number of references to valid blocks.
system.cpu.dcache.tags.warmup_cycle            195500                       # Cycle when the warmup percentage was hit.
system.cpu.dcache.tags.occ_blocks::.cpu.data   463.947013                       # Average occupied blocks per requestor
system.cpu.dcache.tags.occ_percent::.cpu.data     0.906147                       # Average percentage of cache occupancy
system.cpu.dcache.tags.occ_percent::total     0.906147                       # Average percentage of cache occupancy
system.cpu.dcache.tags.occ_task_id_blocks::1024          512                       # Occupied blocks per task id
system.cpu.dcache.tags.age_task_id_blocks_1024::0          214                       # Occupied blocks per task id
system.cpu.dcache.tags.age_task_id_blocks_1024::1          298                       # Occupied blocks per task id
system.cpu.dcache.tags.occ_task_id_percent::1024            1                       # Percentage of cache occupancy per task id
system.cpu.dcache.tags.tag_accesses           1495594                       # Number of tag accesses
system.cpu.dcache.tags.data_accesses          1495594                       # Number of data accesses
system.cpu.dcache.tags.power_state.pwrStateResidencyTicks::UNDEFINED   1084938500                       # Cumulative time (in ticks) in various power states
system.cpu.power_state.pwrStateResidencyTicks::ON   1084938500                       # Cumulative time (in ticks) in various power states

---------- End Simulation Statistics   ----------
