
---------- Begin Simulation Statistics ----------
final_tick                                 1455819500                       # Number of ticks from beginning of simulation (restored from checkpoints and never reset)
host_inst_rate                                  94750                       # Simulator instruction rate (inst/s)
host_mem_usage                                 858988                       # Number of bytes of host memory used
host_op_rate                                   109373                       # Simulator op (including micro ops) rate (op/s)
host_seconds                                    29.90                       # Real time elapsed on the host
host_tick_rate                               48688000                       # Simulator tick rate (ticks/s)
sim_freq                                 1000000000000                       # Frequency of simulated ticks
sim_insts                                     2833100                       # Number of instructions simulated
sim_ops                                       3270344                       # Number of ops (including micro ops) simulated
sim_seconds                                  0.001456                       # Number of seconds simulated
sim_ticks                                  1455819500                       # Number of ticks simulated
system.cpu.branchPred.BTBCorrect                    0                       # Number of correct BTB predictions (this stat may not work properly.
system.cpu.branchPred.BTBHitPct             98.714514                       # BTB Hit Percentage
system.cpu.branchPred.BTBHits                  308779                       # Number of BTB hits
system.cpu.branchPred.BTBLookups               312800                       # Number of BTB lookups
system.cpu.branchPred.RASInCorrect                  3                       # Number of incorrect RAS predictions.
system.cpu.branchPred.condIncorrect              7486                       # Number of conditional branches incorrect
system.cpu.branchPred.condPredicted            539156                       # Number of conditional branches predicted
system.cpu.branchPred.indirectHits               1267                       # Number of indirect target hits.
system.cpu.branchPred.indirectLookups            2050                       # Number of indirect predictor lookups.
system.cpu.branchPred.indirectMisses              783                       # Number of indirect misses.
system.cpu.branchPred.lookups                  666690                       # Number of BP lookups
system.cpu.branchPred.loop_predictor.loopPredictorCorrect            0                       # Number of times the loop predictor is the provider and the prediction is correct
system.cpu.branchPred.loop_predictor.loopPredictorWrong            0                       # Number of times the loop predictor is the provider and the prediction is wrong
system.cpu.branchPred.statistical_corrector.scPredictorCorrect          780                       # Number of time the SC predictor is the provider and the prediction is correct
system.cpu.branchPred.statistical_corrector.scPredictorWrong          541                       # Number of time the SC predictor is the provider and the prediction is wrong
system.cpu.branchPred.tage.bimodalAltMatchProviderCorrect          389                       # Number of times TAGE Alt Match is the bimodal and it is the provider and the prediction is correct
system.cpu.branchPred.tage.bimodalAltMatchProviderWrong           84                       # Number of times TAGE Alt Match is the bimodal and it is the provider and the prediction is wrong
system.cpu.branchPred.tage.tageAltMatchProvider::0        44548                       # TAGE provider for alt match
system.cpu.branchPred.tage.tageAltMatchProvider::1            0                       # TAGE provider for alt match
system.cpu.branchPred.tage.tageAltMatchProvider::2         9884                       # TAGE provider for alt match
system.cpu.branchPred.tage.tageAltMatchProvider::3            0                       # TAGE provider for alt match
system.cpu.branchPred.tage.tageAltMatchProvider::4         6683                       # TAGE provider for alt match
system.cpu.branchPred.tage.tageAltMatchProvider::5            0                       # TAGE provider for alt match
system.cpu.branchPred.tage.tageAltMatchProvider::6         1732                       # TAGE provider for alt match
system.cpu.branchPred.tage.tageAltMatchProvider::7        15678                       # TAGE provider for alt match
system.cpu.branchPred.tage.tageAltMatchProvider::8         1525                       # TAGE provider for alt match
system.cpu.branchPred.tage.tageAltMatchProvider::9         1373                       # TAGE provider for alt match
system.cpu.branchPred.tage.tageAltMatchProvider::10         2834                       # TAGE provider for alt match
system.cpu.branchPred.tage.tageAltMatchProvider::11        11377                       # TAGE provider for alt match
system.cpu.branchPred.tage.tageAltMatchProvider::12         3982                       # TAGE provider for alt match
system.cpu.branchPred.tage.tageAltMatchProvider::13         2338                       # TAGE provider for alt match
system.cpu.branchPred.tage.tageAltMatchProvider::14         1372                       # TAGE provider for alt match
system.cpu.branchPred.tage.tageAltMatchProvider::15         1393                       # TAGE provider for alt match
system.cpu.branchPred.tage.tageAltMatchProvider::16         1933                       # TAGE provider for alt match
system.cpu.branchPred.tage.tageAltMatchProvider::17         1051                       # TAGE provider for alt match
system.cpu.branchPred.tage.tageAltMatchProvider::18         4203                       # TAGE provider for alt match
system.cpu.branchPred.tage.tageAltMatchProvider::19         1898                       # TAGE provider for alt match
system.cpu.branchPred.tage.tageAltMatchProvider::20         3172                       # TAGE provider for alt match
system.cpu.branchPred.tage.tageAltMatchProvider::21            0                       # TAGE provider for alt match
system.cpu.branchPred.tage.tageAltMatchProvider::22         1755                       # TAGE provider for alt match
system.cpu.branchPred.tage.tageAltMatchProvider::23            0                       # TAGE provider for alt match
system.cpu.branchPred.tage.tageAltMatchProvider::24         5232                       # TAGE provider for alt match
system.cpu.branchPred.tage.tageAltMatchProvider::25            0                       # TAGE provider for alt match
system.cpu.branchPred.tage.tageAltMatchProvider::26        10279                       # TAGE provider for alt match
system.cpu.branchPred.tage.tageAltMatchProvider::27            0                       # TAGE provider for alt match
system.cpu.branchPred.tage.tageAltMatchProvider::28         3112                       # TAGE provider for alt match
system.cpu.branchPred.tage.tageAltMatchProvider::29            0                       # TAGE provider for alt match
system.cpu.branchPred.tage.tageAltMatchProvider::30            0                       # TAGE provider for alt match
system.cpu.branchPred.tage.tageAltMatchProviderCorrect         2320                       # Number of times TAGE Alt Match is the provider and the prediction is correct
system.cpu.branchPred.tage.tageAltMatchProviderWouldHaveHit          407                       # Number of times TAGE Longest Match is the provider, the prediction is wrong and Alt Match prediction was correct
system.cpu.branchPred.tage.tageAltMatchProviderWrong          815                       # Number of times TAGE Alt Match is the provider and the prediction is wrong
system.cpu.branchPred.tage.tageBimodalProviderCorrect       309083                       # Number of times there are no hits on the TAGE tables and the bimodal prediction is correct
system.cpu.branchPred.tage.tageBimodalProviderWrong         1214                       # Number of times there are no hits on the TAGE tables and the bimodal prediction is wrong
system.cpu.branchPred.tage.tageLongestMatchProvider::0            0                       # TAGE provider for longest match
system.cpu.branchPred.tage.tageLongestMatchProvider::1            0                       # TAGE provider for longest match
system.cpu.branchPred.tage.tageLongestMatchProvider::2        24843                       # TAGE provider for longest match
system.cpu.branchPred.tage.tageLongestMatchProvider::3            0                       # TAGE provider for longest match
system.cpu.branchPred.tage.tageLongestMatchProvider::4          592                       # TAGE provider for longest match
system.cpu.branchPred.tage.tageLongestMatchProvider::5            0                       # TAGE provider for longest match
system.cpu.branchPred.tage.tageLongestMatchProvider::6        23749                       # TAGE provider for longest match
system.cpu.branchPred.tage.tageLongestMatchProvider::7         2818                       # TAGE provider for longest match
system.cpu.branchPred.tage.tageLongestMatchProvider::8         6940                       # TAGE provider for longest match
system.cpu.branchPred.tage.tageLongestMatchProvider::9         1779                       # TAGE provider for longest match
system.cpu.branchPred.tage.tageLongestMatchProvider::10        16415                       # TAGE provider for longest match
system.cpu.branchPred.tage.tageLongestMatchProvider::11         2568                       # TAGE provider for longest match
system.cpu.branchPred.tage.tageLongestMatchProvider::12         2078                       # TAGE provider for longest match
system.cpu.branchPred.tage.tageLongestMatchProvider::13         5201                       # TAGE provider for longest match
system.cpu.branchPred.tage.tageLongestMatchProvider::14         9856                       # TAGE provider for longest match
system.cpu.branchPred.tage.tageLongestMatchProvider::15         1550                       # TAGE provider for longest match
system.cpu.branchPred.tage.tageLongestMatchProvider::16         2032                       # TAGE provider for longest match
system.cpu.branchPred.tage.tageLongestMatchProvider::17         1474                       # TAGE provider for longest match
system.cpu.branchPred.tage.tageLongestMatchProvider::18         2163                       # TAGE provider for longest match
system.cpu.branchPred.tage.tageLongestMatchProvider::19         1991                       # TAGE provider for longest match
system.cpu.branchPred.tage.tageLongestMatchProvider::20         5483                       # TAGE provider for longest match
system.cpu.branchPred.tage.tageLongestMatchProvider::21            0                       # TAGE provider for longest match
system.cpu.branchPred.tage.tageLongestMatchProvider::22         2519                       # TAGE provider for longest match
system.cpu.branchPred.tage.tageLongestMatchProvider::23            0                       # TAGE provider for longest match
system.cpu.branchPred.tage.tageLongestMatchProvider::24         3594                       # TAGE provider for longest match
system.cpu.branchPred.tage.tageLongestMatchProvider::25            0                       # TAGE provider for longest match
system.cpu.branchPred.tage.tageLongestMatchProvider::26         5636                       # TAGE provider for longest match
system.cpu.branchPred.tage.tageLongestMatchProvider::27            0                       # TAGE provider for longest match
system.cpu.branchPred.tage.tageLongestMatchProvider::28         2388                       # TAGE provider for longest match
system.cpu.branchPred.tage.tageLongestMatchProvider::29            0                       # TAGE provider for longest match
system.cpu.branchPred.tage.tageLongestMatchProvider::30        11685                       # TAGE provider for longest match
system.cpu.branchPred.tage.tageLongestMatchProviderCorrect       131513                       # Number of times TAGE Longest Match is the provider and the prediction is correct
system.cpu.branchPred.tage.tageLongestMatchProviderWouldHaveHit          315                       # Number of times TAGE Alt Match is the provider, the prediction is wrong and Longest Match prediction was correct
system.cpu.branchPred.tage.tageLongestMatchProviderWrong         2706                       # Number of times TAGE Longest Match is the provider and the prediction is wrong
system.cpu.branchPred.usedRAS                   37465                       # Number of times the RAS was used to get a target.
system.cpu.branchPred.wormholepredictor.whPredictorCorrect         6632                       # Number of time the WH predictor is the provider and the prediction is correct
system.cpu.branchPred.wormholepredictor.whPredictorWrong            0                       # Number of time the WH predictor is the provider and the prediction is wrong
system.cpu.branchPredindirectMispredicted          158                       # Number of mispredicted indirect branches.
system.cpu.cc_regfile_reads                    990765                       # number of cc regfile reads
system.cpu.cc_regfile_writes                   984323                       # number of cc regfile writes
system.cpu.commit.amos                              0                       # Number of atomic instructions committed
system.cpu.commit.branchMispredicts              6068                       # The number of times a branch was mispredicted
system.cpu.commit.branches                     559313                       # Number of branches committed
system.cpu.commit.bw_lim_events                183675                       # number cycles where commit BW limit reached
system.cpu.commit.commitNonSpecStalls             388                       # The number of times commit has been forced to stall to communicate backwards
system.cpu.commit.commitSquashedInsts          318053                       # The number of squashed insts skipped by commit
system.cpu.commit.committedInsts              2845009                       # Number of instructions committed
system.cpu.commit.committedOps                3282253                       # Number of ops (including micro ops) committed
system.cpu.commit.committed_per_cycle::samples      2772237                       # Number of insts commited each cycle
system.cpu.commit.committed_per_cycle::mean     1.183973                       # Number of insts commited each cycle
system.cpu.commit.committed_per_cycle::stdev     2.301395                       # Number of insts commited each cycle
system.cpu.commit.committed_per_cycle::underflows            0      0.00%      0.00% # Number of insts commited each cycle
system.cpu.commit.committed_per_cycle::0      1872956     67.56%     67.56% # Number of insts commited each cycle
system.cpu.commit.committed_per_cycle::1       291796     10.53%     78.09% # Number of insts commited each cycle
system.cpu.commit.committed_per_cycle::2       131495      4.74%     82.83% # Number of insts commited each cycle
system.cpu.commit.committed_per_cycle::3       126491      4.56%     87.39% # Number of insts commited each cycle
system.cpu.commit.committed_per_cycle::4        59201      2.14%     89.53% # Number of insts commited each cycle
system.cpu.commit.committed_per_cycle::5        22652      0.82%     90.35% # Number of insts commited each cycle
system.cpu.commit.committed_per_cycle::6        59267      2.14%     92.48% # Number of insts commited each cycle
system.cpu.commit.committed_per_cycle::7        24704      0.89%     93.37% # Number of insts commited each cycle
system.cpu.commit.committed_per_cycle::8       183675      6.63%    100.00% # Number of insts commited each cycle
system.cpu.commit.committed_per_cycle::overflows            0      0.00%    100.00% # Number of insts commited each cycle
system.cpu.commit.committed_per_cycle::min_value            0                       # Number of insts commited each cycle
system.cpu.commit.committed_per_cycle::max_value            8                       # Number of insts commited each cycle
system.cpu.commit.committed_per_cycle::total      2772237                       # Number of insts commited each cycle
system.cpu.commit.fp_insts                          0                       # Number of committed floating point instructions.
system.cpu.commit.function_calls                29833                       # Number of function calls committed.
system.cpu.commit.int_insts                   2980509                       # Number of committed integer instructions.
system.cpu.commit.loads                        448105                       # Number of loads committed
system.cpu.commit.membars                         278                       # Number of memory barriers committed
system.cpu.commit.op_class_0::No_OpClass           38      0.00%      0.00% # Class of committed instruction
system.cpu.commit.op_class_0::IntAlu          2375636     72.38%     72.38% # Class of committed instruction
system.cpu.commit.op_class_0::IntMult           17827      0.54%     72.92% # Class of committed instruction
system.cpu.commit.op_class_0::IntDiv              512      0.02%     72.94% # Class of committed instruction
system.cpu.commit.op_class_0::FloatAdd            625      0.02%     72.96% # Class of committed instruction
system.cpu.commit.op_class_0::FloatCmp            137      0.00%     72.96% # Class of committed instruction
system.cpu.commit.op_class_0::FloatCvt           1604      0.05%     73.01% # Class of committed instruction
system.cpu.commit.op_class_0::FloatMult           946      0.03%     73.04% # Class of committed instruction
system.cpu.commit.op_class_0::FloatMultAcc         1506      0.05%     73.08% # Class of committed instruction
system.cpu.commit.op_class_0::FloatDiv            628      0.02%     73.10% # Class of committed instruction
system.cpu.commit.op_class_0::FloatMisc          1211      0.04%     73.14% # Class of committed instruction
system.cpu.commit.op_class_0::FloatSqrt             0      0.00%     73.14% # Class of committed instruction
system.cpu.commit.op_class_0::SimdAdd              98      0.00%     73.14% # Class of committed instruction
system.cpu.commit.op_class_0::SimdAddAcc            0      0.00%     73.14% # Class of committed instruction
system.cpu.commit.op_class_0::SimdAlu             162      0.00%     73.15% # Class of committed instruction
system.cpu.commit.op_class_0::SimdCmp             152      0.00%     73.15% # Class of committed instruction
system.cpu.commit.op_class_0::SimdCvt               0      0.00%     73.15% # Class of committed instruction
system.cpu.commit.op_class_0::SimdMisc            754      0.02%     73.18% # Class of committed instruction
system.cpu.commit.op_class_0::SimdMult              0      0.00%     73.18% # Class of committed instruction
system.cpu.commit.op_class_0::SimdMultAcc            0      0.00%     73.18% # Class of committed instruction
system.cpu.commit.op_class_0::SimdShift             0      0.00%     73.18% # Class of committed instruction
system.cpu.commit.op_class_0::SimdShiftAcc            0      0.00%     73.18% # Class of committed instruction
system.cpu.commit.op_class_0::SimdDiv               0      0.00%     73.18% # Class of committed instruction
system.cpu.commit.op_class_0::SimdSqrt              0      0.00%     73.18% # Class of committed instruction
system.cpu.commit.op_class_0::SimdFloatAdd            0      0.00%     73.18% # Class of committed instruction
system.cpu.commit.op_class_0::SimdFloatAlu            0      0.00%     73.18% # Class of committed instruction
system.cpu.commit.op_class_0::SimdFloatCmp            0      0.00%     73.18% # Class of committed instruction
system.cpu.commit.op_class_0::SimdFloatCvt            0      0.00%     73.18% # Class of committed instruction
system.cpu.commit.op_class_0::SimdFloatDiv            0      0.00%     73.18% # Class of committed instruction
system.cpu.commit.op_class_0::SimdFloatMisc            0      0.00%     73.18% # Class of committed instruction
system.cpu.commit.op_class_0::SimdFloatMult            0      0.00%     73.18% # Class of committed instruction
system.cpu.commit.op_class_0::SimdFloatMultAcc            0      0.00%     73.18% # Class of committed instruction
system.cpu.commit.op_class_0::SimdFloatSqrt            0      0.00%     73.18% # Class of committed instruction
system.cpu.commit.op_class_0::SimdReduceAdd            0      0.00%     73.18% # Class of committed instruction
system.cpu.commit.op_class_0::SimdReduceAlu            0      0.00%     73.18% # Class of committed instruction
system.cpu.commit.op_class_0::SimdReduceCmp            0      0.00%     73.18% # Class of committed instruction
system.cpu.commit.op_class_0::SimdFloatReduceAdd            0      0.00%     73.18% # Class of committed instruction
system.cpu.commit.op_class_0::SimdFloatReduceCmp            0      0.00%     73.18% # Class of committed instruction
system.cpu.commit.op_class_0::SimdAes               0      0.00%     73.18% # Class of committed instruction
system.cpu.commit.op_class_0::SimdAesMix            0      0.00%     73.18% # Class of committed instruction
system.cpu.commit.op_class_0::SimdSha1Hash            0      0.00%     73.18% # Class of committed instruction
system.cpu.commit.op_class_0::SimdSha1Hash2            0      0.00%     73.18% # Class of committed instruction
system.cpu.commit.op_class_0::SimdSha256Hash            0      0.00%     73.18% # Class of committed instruction
system.cpu.commit.op_class_0::SimdSha256Hash2            0      0.00%     73.18% # Class of committed instruction
system.cpu.commit.op_class_0::SimdShaSigma2            0      0.00%     73.18% # Class of committed instruction
system.cpu.commit.op_class_0::SimdShaSigma3            0      0.00%     73.18% # Class of committed instruction
system.cpu.commit.op_class_0::SimdPredAlu            0      0.00%     73.18% # Class of committed instruction
system.cpu.commit.op_class_0::MemRead          448105     13.65%     86.83% # Class of committed instruction
system.cpu.commit.op_class_0::MemWrite         432312     13.17%    100.00% # Class of committed instruction
system.cpu.commit.op_class_0::FloatMemRead            0      0.00%    100.00% # Class of committed instruction
system.cpu.commit.op_class_0::FloatMemWrite            0      0.00%    100.00% # Class of committed instruction
system.cpu.commit.op_class_0::IprAccess             0      0.00%    100.00% # Class of committed instruction
system.cpu.commit.op_class_0::InstPrefetch            0      0.00%    100.00% # Class of committed instruction
system.cpu.commit.op_class_0::total           3282253                       # Class of committed instruction
system.cpu.commit.refs                         880417                       # Number of memory references committed
system.cpu.commit.swp_count                         0                       # Number of s/w prefetches committed
system.cpu.commit.vec_insts                     29063                       # Number of committed Vector instructions.
system.cpu.committedInsts                     2833100                       # Number of Instructions Simulated
system.cpu.committedOps                       3270344                       # Number of Ops (including micro ops) Simulated
system.cpu.cpi                               1.027723                       # CPI: Cycles Per Instruction
system.cpu.cpi_total                         1.027723                       # CPI: Total CPI of All Threads
system.cpu.decode.BlockedCycles               1879377                       # Number of cycles decode is blocked
system.cpu.decode.BranchMispred                  1454                       # Number of times decode detected a branch misprediction
system.cpu.decode.BranchResolved               296947                       # Number of times decode resolved a branch
system.cpu.decode.DecodedInsts                3676829                       # Number of instructions handled by decode
system.cpu.decode.IdleCycles                   333257                       # Number of cycles decode is idle
system.cpu.decode.RunCycles                    505321                       # Number of cycles decode is running
system.cpu.decode.SquashCycles                   9036                       # Number of cycles decode is squashing
system.cpu.decode.SquashedInsts                  4567                       # Number of squashed instructions handled by decode
system.cpu.decode.UnblockCycles                 89413                       # Number of cycles decode is unblocking
system.cpu.dtb.accesses                             0                       # DTB accesses
system.cpu.dtb.align_faults                         0                       # Number of TLB faults due to alignment restrictions
system.cpu.dtb.domain_faults                        0                       # Number of TLB faults due to domain restrictions
system.cpu.dtb.flush_entries                        0                       # Number of entries that have been flushed from TLB
system.cpu.dtb.flush_tlb                            0                       # Number of times complete TLB was flushed
system.cpu.dtb.flush_tlb_asid                       0                       # Number of times TLB was flushed by ASID
system.cpu.dtb.flush_tlb_mva                        0                       # Number of times TLB was flushed by MVA
system.cpu.dtb.flush_tlb_mva_asid                   0                       # Number of times TLB was flushed by MVA & ASID
system.cpu.dtb.hits                                 0                       # DTB hits
system.cpu.dtb.inst_accesses                        0                       # ITB inst accesses
system.cpu.dtb.inst_hits                            0                       # ITB inst hits
system.cpu.dtb.inst_misses                          0                       # ITB inst misses
system.cpu.dtb.misses                               0                       # DTB misses
system.cpu.dtb.perms_faults                         0                       # Number of TLB faults due to permissions restrictions
system.cpu.dtb.prefetch_faults                      0                       # Number of TLB faults due to prefetch
system.cpu.dtb.read_accesses                        0                       # DTB read accesses
system.cpu.dtb.read_hits                            0                       # DTB read hits
system.cpu.dtb.read_misses                          0                       # DTB read misses
system.cpu.dtb.stage2_mmu.stage2_tlb.accesses            0                       # DTB accesses
system.cpu.dtb.stage2_mmu.stage2_tlb.align_faults            0                       # Number of TLB faults due to alignment restrictions
system.cpu.dtb.stage2_mmu.stage2_tlb.domain_faults            0                       # Number of TLB faults due to domain restrictions
system.cpu.dtb.stage2_mmu.stage2_tlb.flush_entries            0                       # Number of entries that have been flushed from TLB
system.cpu.dtb.stage2_mmu.stage2_tlb.flush_tlb            0                       # Number of times complete TLB was flushed
system.cpu.dtb.stage2_mmu.stage2_tlb.flush_tlb_asid            0                       # Number of times TLB was flushed by ASID
system.cpu.dtb.stage2_mmu.stage2_tlb.flush_tlb_mva            0                       # Number of times TLB was flushed by MVA
system.cpu.dtb.stage2_mmu.stage2_tlb.flush_tlb_mva_asid            0                       # Number of times TLB was flushed by MVA & ASID
system.cpu.dtb.stage2_mmu.stage2_tlb.hits            0                       # DTB hits
system.cpu.dtb.stage2_mmu.stage2_tlb.inst_accesses            0                       # ITB inst accesses
system.cpu.dtb.stage2_mmu.stage2_tlb.inst_hits            0                       # ITB inst hits
system.cpu.dtb.stage2_mmu.stage2_tlb.inst_misses            0                       # ITB inst misses
system.cpu.dtb.stage2_mmu.stage2_tlb.misses            0                       # DTB misses
system.cpu.dtb.stage2_mmu.stage2_tlb.perms_faults            0                       # Number of TLB faults due to permissions restrictions
system.cpu.dtb.stage2_mmu.stage2_tlb.prefetch_faults            0                       # Number of TLB faults due to prefetch
system.cpu.dtb.stage2_mmu.stage2_tlb.read_accesses            0                       # DTB read accesses
system.cpu.dtb.stage2_mmu.stage2_tlb.read_hits            0                       # DTB read hits
system.cpu.dtb.stage2_mmu.stage2_tlb.read_misses            0                       # DTB read misses
system.cpu.dtb.stage2_mmu.stage2_tlb.walker.walkRequestOrigin_Requested::Data            0                       # Table walker requests started/completed, data/inst
system.cpu.dtb.stage2_mmu.stage2_tlb.walker.walkRequestOrigin_Requested::Inst            0                       # Table walker requests started/completed, data/inst
system.cpu.dtb.stage2_mmu.stage2_tlb.walker.walkRequestOrigin_Requested::total            0                       # Table walker requests started/completed, data/inst
system.cpu.dtb.stage2_mmu.stage2_tlb.walker.walkRequestOrigin_Completed::Data            0                       # Table walker requests started/completed, data/inst
system.cpu.dtb.stage2_mmu.stage2_tlb.walker.walkRequestOrigin_Completed::Inst            0                       # Table walker requests started/completed, data/inst
system.cpu.dtb.stage2_mmu.stage2_tlb.walker.walkRequestOrigin_Completed::total            0                       # Table walker requests started/completed, data/inst
system.cpu.dtb.stage2_mmu.stage2_tlb.walker.walkRequestOrigin::total            0                       # Table walker requests started/completed, data/inst
system.cpu.dtb.stage2_mmu.stage2_tlb.walker.walks            0                       # Table walker walks requested
system.cpu.dtb.stage2_mmu.stage2_tlb.write_accesses            0                       # DTB write accesses
system.cpu.dtb.stage2_mmu.stage2_tlb.write_hits            0                       # DTB write hits
system.cpu.dtb.stage2_mmu.stage2_tlb.write_misses            0                       # DTB write misses
system.cpu.dtb.walker.walkRequestOrigin_Requested::Data            0                       # Table walker requests started/completed, data/inst
system.cpu.dtb.walker.walkRequestOrigin_Requested::Inst            0                       # Table walker requests started/completed, data/inst
system.cpu.dtb.walker.walkRequestOrigin_Requested::total            0                       # Table walker requests started/completed, data/inst
system.cpu.dtb.walker.walkRequestOrigin_Completed::Data            0                       # Table walker requests started/completed, data/inst
system.cpu.dtb.walker.walkRequestOrigin_Completed::Inst            0                       # Table walker requests started/completed, data/inst
system.cpu.dtb.walker.walkRequestOrigin_Completed::total            0                       # Table walker requests started/completed, data/inst
system.cpu.dtb.walker.walkRequestOrigin::total            0                       # Table walker requests started/completed, data/inst
system.cpu.dtb.walker.walks                         0                       # Table walker walks requested
system.cpu.dtb.write_accesses                       0                       # DTB write accesses
system.cpu.dtb.write_hits                           0                       # DTB write hits
system.cpu.dtb.write_misses                         0                       # DTB write misses
system.cpu.fetch.Branches                      666690                       # Number of branches that fetch encountered
system.cpu.fetch.CacheLines                    454542                       # Number of cache lines fetched
system.cpu.fetch.Cycles                       2294969                       # Number of cycles fetch has run and was not squashing or blocked
system.cpu.fetch.IcacheSquashes                  3198                       # Number of outstanding Icache misses that were squashed
system.cpu.fetch.IcacheWaitRetryStallCycles           36                       # Number of stall cycles due to full MSHR
system.cpu.fetch.Insts                        3322343                       # Number of instructions fetch has processed
system.cpu.fetch.MiscStallCycles                  169                       # Number of cycles fetch has spent waiting on interrupts, or bad addresses, or out of MSHRs
system.cpu.fetch.PendingTrapStallCycles           118                       # Number of stall cycles due to pending traps
system.cpu.fetch.SquashCycles                   20946                       # Number of cycles fetch has spent squashing
system.cpu.fetch.branchRate                  0.228974                       # Number of branch fetches per cycle
system.cpu.fetch.icacheStallCycles             510639                       # Number of cycles fetch is stalled on an Icache miss
system.cpu.fetch.predictedBranches             347511                       # Number of branches that fetch has predicted taken
system.cpu.fetch.rate                        1.141055                       # Number of inst fetches per cycle
system.cpu.fetch.rateDist::samples            2816404                       # Number of instructions fetched each cycle (Total)
system.cpu.fetch.rateDist::mean              1.369405                       # Number of instructions fetched each cycle (Total)
system.cpu.fetch.rateDist::stdev             2.636614                       # Number of instructions fetched each cycle (Total)
system.cpu.fetch.rateDist::underflows               0      0.00%      0.00% # Number of instructions fetched each cycle (Total)
system.cpu.fetch.rateDist::0                  2083070     73.96%     73.96% # Number of instructions fetched each cycle (Total)
system.cpu.fetch.rateDist::1                    64780      2.30%     76.26% # Number of instructions fetched each cycle (Total)
system.cpu.fetch.rateDist::2                    86546      3.07%     79.34% # Number of instructions fetched each cycle (Total)
system.cpu.fetch.rateDist::3                    52087      1.85%     81.18% # Number of instructions fetched each cycle (Total)
system.cpu.fetch.rateDist::4                    95226      3.38%     84.57% # Number of instructions fetched each cycle (Total)
system.cpu.fetch.rateDist::5                    79171      2.81%     87.38% # Number of instructions fetched each cycle (Total)
system.cpu.fetch.rateDist::6                    49256      1.75%     89.13% # Number of instructions fetched each cycle (Total)
system.cpu.fetch.rateDist::7                    59774      2.12%     91.25% # Number of instructions fetched each cycle (Total)
system.cpu.fetch.rateDist::8                   246494      8.75%    100.00% # Number of instructions fetched each cycle (Total)
system.cpu.fetch.rateDist::overflows                0      0.00%    100.00% # Number of instructions fetched each cycle (Total)
system.cpu.fetch.rateDist::min_value                0                       # Number of instructions fetched each cycle (Total)
system.cpu.fetch.rateDist::max_value                8                       # Number of instructions fetched each cycle (Total)
system.cpu.fetch.rateDist::total              2816404                       # Number of instructions fetched each cycle (Total)
system.cpu.idleCycles                           95237                       # Total number of cycles that the CPU has spent unscheduled due to idling
system.cpu.iew.branchMispredicts                 7861                       # Number of branch mispredicts detected at execute
system.cpu.iew.exec_branches                   608197                       # Number of branches executed
system.cpu.iew.exec_nop                         12171                       # number of nop insts executed
system.cpu.iew.exec_rate                     1.215018                       # Inst execution rate
system.cpu.iew.exec_refs                       981686                       # number of memory reference insts executed
system.cpu.iew.exec_stores                     464453                       # Number of stores executed
system.cpu.iew.exec_swp                             0                       # number of swp insts executed
system.cpu.iew.iewBlockCycles                   57751                       # Number of cycles IEW is blocking
system.cpu.iew.iewDispLoadInsts                508298                       # Number of dispatched load instructions
system.cpu.iew.iewDispNonSpecInsts                533                       # Number of dispatched non-speculative instructions
system.cpu.iew.iewDispSquashedInsts               895                       # Number of squashed instructions skipped by dispatch
system.cpu.iew.iewDispStoreInsts               476176                       # Number of dispatched store instructions
system.cpu.iew.iewDispatchedInsts             3607648                       # Number of instructions dispatched to IQ
system.cpu.iew.iewExecLoadInsts                517233                       # Number of load instructions executed
system.cpu.iew.iewExecSquashedInsts              7553                       # Number of squashed instructions skipped in execute
system.cpu.iew.iewExecutedInsts               3537697                       # Number of executed instructions
system.cpu.iew.iewIQFullEvents                    375                       # Number of times the IQ has become full, causing a stall
system.cpu.iew.iewIdleCycles                        0                       # Number of cycles IEW is idle
system.cpu.iew.iewLSQFullEvents                 48006                       # Number of times the LSQ has become full, causing a stall
system.cpu.iew.iewSquashCycles                   9036                       # Number of cycles IEW is squashing
system.cpu.iew.iewUnblockCycles                 48425                       # Number of cycles IEW is unblocking
system.cpu.iew.lsq.thread0.blockedLoads             0                       # Number of blocked loads due to partial load-store forwarding
system.cpu.iew.lsq.thread0.cacheBlocked         14048                       # Number of times an access to memory failed due to the cache being blocked
system.cpu.iew.lsq.thread0.forwLoads            15928                       # Number of loads that had data forwarded from stores
system.cpu.iew.lsq.thread0.ignoredResponses           11                       # Number of memory responses ignored because the instruction is squashed
system.cpu.iew.lsq.thread0.invAddrLoads             0                       # Number of loads ignored due to an invalid address
system.cpu.iew.lsq.thread0.invAddrSwpfs             0                       # Number of software prefetches ignored due to an invalid address
system.cpu.iew.lsq.thread0.memOrderViolation           38                       # Number of memory ordering violations
system.cpu.iew.lsq.thread0.rescheduledLoads         1285                       # Number of loads that were rescheduled
system.cpu.iew.lsq.thread0.squashedLoads        60193                       # Number of loads squashed
system.cpu.iew.lsq.thread0.squashedStores        43864                       # Number of stores squashed
system.cpu.iew.memOrderViolationEvents             38                       # Number of memory order violations
system.cpu.iew.predictedNotTakenIncorrect         4370                       # Number of branches that were predicted not taken incorrectly
system.cpu.iew.predictedTakenIncorrect           3491                       # Number of branches that were predicted taken incorrectly
system.cpu.iew.wb_consumers                   3528789                       # num instructions consuming a value
system.cpu.iew.wb_count                       3502126                       # cumulative count of insts written-back
system.cpu.iew.wb_fanout                     0.592261                       # average fanout of values written-back
system.cpu.iew.wb_producers                   2089965                       # num instructions producing a value
system.cpu.iew.wb_rate                       1.202801                       # insts written-back per cycle
system.cpu.iew.wb_sent                        3513192                       # cumulative count of insts sent to commit
system.cpu.int_regfile_reads                  4007023                       # number of integer regfile reads
system.cpu.int_regfile_writes                 2558136                       # number of integer regfile writes
system.cpu.ipc                               0.973025                       # IPC: Instructions Per Cycle
system.cpu.ipc_total                         0.973025                       # IPC: Total IPC of All Threads
system.cpu.iq.FU_type_0::No_OpClass                60      0.00%      0.00% # Type of FU issued
system.cpu.iq.FU_type_0::IntAlu               2531174     71.40%     71.40% # Type of FU issued
system.cpu.iq.FU_type_0::IntMult                19032      0.54%     71.93% # Type of FU issued
system.cpu.iq.FU_type_0::IntDiv                   603      0.02%     71.95% # Type of FU issued
system.cpu.iq.FU_type_0::FloatAdd                 645      0.02%     71.97% # Type of FU issued
system.cpu.iq.FU_type_0::FloatCmp                 137      0.00%     71.97% # Type of FU issued
system.cpu.iq.FU_type_0::FloatCvt                1991      0.06%     72.03% # Type of FU issued
system.cpu.iq.FU_type_0::FloatMult               1046      0.03%     72.06% # Type of FU issued
system.cpu.iq.FU_type_0::FloatMultAcc            1532      0.04%     72.10% # Type of FU issued
system.cpu.iq.FU_type_0::FloatDiv                 800      0.02%     72.13% # Type of FU issued
system.cpu.iq.FU_type_0::FloatMisc               1525      0.04%     72.17% # Type of FU issued
system.cpu.iq.FU_type_0::FloatSqrt                  0      0.00%     72.17% # Type of FU issued
system.cpu.iq.FU_type_0::SimdAdd                  108      0.00%     72.17% # Type of FU issued
system.cpu.iq.FU_type_0::SimdAddAcc                 0      0.00%     72.17% # Type of FU issued
system.cpu.iq.FU_type_0::SimdAlu                  176      0.00%     72.18% # Type of FU issued
system.cpu.iq.FU_type_0::SimdCmp                  160      0.00%     72.18% # Type of FU issued
system.cpu.iq.FU_type_0::SimdCvt                    0      0.00%     72.18% # Type of FU issued
system.cpu.iq.FU_type_0::SimdMisc                 824      0.02%     72.20% # Type of FU issued
system.cpu.iq.FU_type_0::SimdMult                   0      0.00%     72.20% # Type of FU issued
system.cpu.iq.FU_type_0::SimdMultAcc                0      0.00%     72.20% # Type of FU issued
system.cpu.iq.FU_type_0::SimdShift                  0      0.00%     72.20% # Type of FU issued
system.cpu.iq.FU_type_0::SimdShiftAcc               0      0.00%     72.20% # Type of FU issued
system.cpu.iq.FU_type_0::SimdDiv                    0      0.00%     72.20% # Type of FU issued
system.cpu.iq.FU_type_0::SimdSqrt                   0      0.00%     72.20% # Type of FU issued
system.cpu.iq.FU_type_0::SimdFloatAdd               0      0.00%     72.20% # Type of FU issued
system.cpu.iq.FU_type_0::SimdFloatAlu               0      0.00%     72.20% # Type of FU issued
system.cpu.iq.FU_type_0::SimdFloatCmp               0      0.00%     72.20% # Type of FU issued
system.cpu.iq.FU_type_0::SimdFloatCvt               0      0.00%     72.20% # Type of FU issued
system.cpu.iq.FU_type_0::SimdFloatDiv               0      0.00%     72.20% # Type of FU issued
system.cpu.iq.FU_type_0::SimdFloatMisc              0      0.00%     72.20% # Type of FU issued
system.cpu.iq.FU_type_0::SimdFloatMult              0      0.00%     72.20% # Type of FU issued
system.cpu.iq.FU_type_0::SimdFloatMultAcc            0      0.00%     72.20% # Type of FU issued
system.cpu.iq.FU_type_0::SimdFloatSqrt              0      0.00%     72.20% # Type of FU issued
system.cpu.iq.FU_type_0::SimdReduceAdd              0      0.00%     72.20% # Type of FU issued
system.cpu.iq.FU_type_0::SimdReduceAlu              0      0.00%     72.20% # Type of FU issued
system.cpu.iq.FU_type_0::SimdReduceCmp              0      0.00%     72.20% # Type of FU issued
system.cpu.iq.FU_type_0::SimdFloatReduceAdd            0      0.00%     72.20% # Type of FU issued
system.cpu.iq.FU_type_0::SimdFloatReduceCmp            0      0.00%     72.20% # Type of FU issued
system.cpu.iq.FU_type_0::SimdAes                    0      0.00%     72.20% # Type of FU issued
system.cpu.iq.FU_type_0::SimdAesMix                 0      0.00%     72.20% # Type of FU issued
system.cpu.iq.FU_type_0::SimdSha1Hash               0      0.00%     72.20% # Type of FU issued
system.cpu.iq.FU_type_0::SimdSha1Hash2              0      0.00%     72.20% # Type of FU issued
system.cpu.iq.FU_type_0::SimdSha256Hash             0      0.00%     72.20% # Type of FU issued
system.cpu.iq.FU_type_0::SimdSha256Hash2            0      0.00%     72.20% # Type of FU issued
system.cpu.iq.FU_type_0::SimdShaSigma2              0      0.00%     72.20% # Type of FU issued
system.cpu.iq.FU_type_0::SimdShaSigma3              0      0.00%     72.20% # Type of FU issued
system.cpu.iq.FU_type_0::SimdPredAlu                0      0.00%     72.20% # Type of FU issued
system.cpu.iq.FU_type_0::MemRead               519280     14.65%     86.85% # Type of FU issued
system.cpu.iq.FU_type_0::MemWrite              466157     13.15%    100.00% # Type of FU issued
system.cpu.iq.FU_type_0::FloatMemRead               0      0.00%    100.00% # Type of FU issued
system.cpu.iq.FU_type_0::FloatMemWrite              0      0.00%    100.00% # Type of FU issued
system.cpu.iq.FU_type_0::IprAccess                  0      0.00%    100.00% # Type of FU issued
system.cpu.iq.FU_type_0::InstPrefetch               0      0.00%    100.00% # Type of FU issued
system.cpu.iq.FU_type_0::total                3545250                       # Type of FU issued
system.cpu.iq.fp_alu_accesses                       0                       # Number of floating point alu accesses
system.cpu.iq.fp_inst_queue_reads                   0                       # Number of floating instruction queue reads
system.cpu.iq.fp_inst_queue_wakeup_accesses            0                       # Number of floating instruction queue wakeup accesses
system.cpu.iq.fp_inst_queue_writes                  0                       # Number of floating instruction queue writes
system.cpu.iq.fu_busy_cnt                         944                       # FU busy when requested
system.cpu.iq.fu_busy_rate                   0.000266                       # FU busy rate (busy events/executed inst)
system.cpu.iq.fu_full::No_OpClass                   0      0.00%      0.00% # attempts to use FU when none available
system.cpu.iq.fu_full::IntAlu                       0      0.00%      0.00% # attempts to use FU when none available
system.cpu.iq.fu_full::IntMult                    669     70.87%     70.87% # attempts to use FU when none available
system.cpu.iq.fu_full::IntDiv                      39      4.13%     75.00% # attempts to use FU when none available
system.cpu.iq.fu_full::FloatAdd                     0      0.00%     75.00% # attempts to use FU when none available
system.cpu.iq.fu_full::FloatCmp                     0      0.00%     75.00% # attempts to use FU when none available
system.cpu.iq.fu_full::FloatCvt                     0      0.00%     75.00% # attempts to use FU when none available
system.cpu.iq.fu_full::FloatMult                  100     10.59%     85.59% # attempts to use FU when none available
system.cpu.iq.fu_full::FloatMultAcc                62      6.57%     92.16% # attempts to use FU when none available
system.cpu.iq.fu_full::FloatDiv                     0      0.00%     92.16% # attempts to use FU when none available
system.cpu.iq.fu_full::FloatMisc                   74      7.84%    100.00% # attempts to use FU when none available
system.cpu.iq.fu_full::FloatSqrt                    0      0.00%    100.00% # attempts to use FU when none available
system.cpu.iq.fu_full::SimdAdd                      0      0.00%    100.00% # attempts to use FU when none available
system.cpu.iq.fu_full::SimdAddAcc                   0      0.00%    100.00% # attempts to use FU when none available
system.cpu.iq.fu_full::SimdAlu                      0      0.00%    100.00% # attempts to use FU when none available
system.cpu.iq.fu_full::SimdCmp                      0      0.00%    100.00% # attempts to use FU when none available
system.cpu.iq.fu_full::SimdCvt                      0      0.00%    100.00% # attempts to use FU when none available
system.cpu.iq.fu_full::SimdMisc                     0      0.00%    100.00% # attempts to use FU when none available
system.cpu.iq.fu_full::SimdMult                     0      0.00%    100.00% # attempts to use FU when none available
system.cpu.iq.fu_full::SimdMultAcc                  0      0.00%    100.00% # attempts to use FU when none available
system.cpu.iq.fu_full::SimdShift                    0      0.00%    100.00% # attempts to use FU when none available
system.cpu.iq.fu_full::SimdShiftAcc                 0      0.00%    100.00% # attempts to use FU when none available
system.cpu.iq.fu_full::SimdDiv                      0      0.00%    100.00% # attempts to use FU when none available
system.cpu.iq.fu_full::SimdSqrt                     0      0.00%    100.00% # attempts to use FU when none available
system.cpu.iq.fu_full::SimdFloatAdd                 0      0.00%    100.00% # attempts to use FU when none available
system.cpu.iq.fu_full::SimdFloatAlu                 0      0.00%    100.00% # attempts to use FU when none available
system.cpu.iq.fu_full::SimdFloatCmp                 0      0.00%    100.00% # attempts to use FU when none available
system.cpu.iq.fu_full::SimdFloatCvt                 0      0.00%    100.00% # attempts to use FU when none available
system.cpu.iq.fu_full::SimdFloatDiv                 0      0.00%    100.00% # attempts to use FU when none available
system.cpu.iq.fu_full::SimdFloatMisc                0      0.00%    100.00% # attempts to use FU when none available
system.cpu.iq.fu_full::SimdFloatMult                0      0.00%    100.00% # attempts to use FU when none available
system.cpu.iq.fu_full::SimdFloatMultAcc             0      0.00%    100.00% # attempts to use FU when none available
system.cpu.iq.fu_full::SimdFloatSqrt                0      0.00%    100.00% # attempts to use FU when none available
system.cpu.iq.fu_full::SimdReduceAdd                0      0.00%    100.00% # attempts to use FU when none available
system.cpu.iq.fu_full::SimdReduceAlu                0      0.00%    100.00% # attempts to use FU when none available
system.cpu.iq.fu_full::SimdReduceCmp                0      0.00%    100.00% # attempts to use FU when none available
system.cpu.iq.fu_full::SimdFloatReduceAdd            0      0.00%    100.00% # attempts to use FU when none available
system.cpu.iq.fu_full::SimdFloatReduceCmp            0      0.00%    100.00% # attempts to use FU when none available
system.cpu.iq.fu_full::SimdAes                      0      0.00%    100.00% # attempts to use FU when none available
system.cpu.iq.fu_full::SimdAesMix                   0      0.00%    100.00% # attempts to use FU when none available
system.cpu.iq.fu_full::SimdSha1Hash                 0      0.00%    100.00% # attempts to use FU when none available
system.cpu.iq.fu_full::SimdSha1Hash2                0      0.00%    100.00% # attempts to use FU when none available
system.cpu.iq.fu_full::SimdSha256Hash               0      0.00%    100.00% # attempts to use FU when none available
system.cpu.iq.fu_full::SimdSha256Hash2              0      0.00%    100.00% # attempts to use FU when none available
system.cpu.iq.fu_full::SimdShaSigma2                0      0.00%    100.00% # attempts to use FU when none available
system.cpu.iq.fu_full::SimdShaSigma3                0      0.00%    100.00% # attempts to use FU when none available
system.cpu.iq.fu_full::SimdPredAlu                  0      0.00%    100.00% # attempts to use FU when none available
system.cpu.iq.fu_full::MemRead                      0      0.00%    100.00% # attempts to use FU when none available
system.cpu.iq.fu_full::MemWrite                     0      0.00%    100.00% # attempts to use FU when none available
system.cpu.iq.fu_full::FloatMemRead                 0      0.00%    100.00% # attempts to use FU when none available
system.cpu.iq.fu_full::FloatMemWrite                0      0.00%    100.00% # attempts to use FU when none available
system.cpu.iq.fu_full::IprAccess                    0      0.00%    100.00% # attempts to use FU when none available
system.cpu.iq.fu_full::InstPrefetch                 0      0.00%    100.00% # attempts to use FU when none available
system.cpu.iq.int_alu_accesses                3513712                       # Number of integer alu accesses
system.cpu.iq.int_inst_queue_reads            9851133                       # Number of integer instruction queue reads
system.cpu.iq.int_inst_queue_wakeup_accesses      3471062                       # Number of integer instruction queue wakeup accesses
system.cpu.iq.int_inst_queue_writes           3879853                       # Number of integer instruction queue writes
system.cpu.iq.iqInstsAdded                    3594944                       # Number of instructions added to the IQ (excludes non-spec)
system.cpu.iq.iqInstsIssued                   3545250                       # Number of instructions issued
system.cpu.iq.iqNonSpecInstsAdded                 533                       # Number of non-speculative instructions added to the IQ
system.cpu.iq.iqSquashedInstsExamined          325132                       # Number of squashed instructions iterated over during squash; mainly for profiling
system.cpu.iq.iqSquashedInstsIssued              8341                       # Number of squashed instructions issued
system.cpu.iq.iqSquashedNonSpecRemoved            145                       # Number of squashed non-spec instructions that were removed
system.cpu.iq.iqSquashedOperandsExamined       186872                       # Number of squashed operands that are examined and possibly removed from graph
system.cpu.iq.issued_per_cycle::samples       2816404                       # Number of insts issued each cycle
system.cpu.iq.issued_per_cycle::mean         1.258786                       # Number of insts issued each cycle
system.cpu.iq.issued_per_cycle::stdev        1.713578                       # Number of insts issued each cycle
system.cpu.iq.issued_per_cycle::underflows            0      0.00%      0.00% # Number of insts issued each cycle
system.cpu.iq.issued_per_cycle::0             1710418     60.73%     60.73% # Number of insts issued each cycle
system.cpu.iq.issued_per_cycle::1              143575      5.10%     65.83% # Number of insts issued each cycle
system.cpu.iq.issued_per_cycle::2              163145      5.79%     71.62% # Number of insts issued each cycle
system.cpu.iq.issued_per_cycle::3              121679      4.32%     75.94% # Number of insts issued each cycle
system.cpu.iq.issued_per_cycle::4              677587     24.06%    100.00% # Number of insts issued each cycle
system.cpu.iq.issued_per_cycle::overflows            0      0.00%    100.00% # Number of insts issued each cycle
system.cpu.iq.issued_per_cycle::min_value            0                       # Number of insts issued each cycle
system.cpu.iq.issued_per_cycle::max_value            4                       # Number of insts issued each cycle
system.cpu.iq.issued_per_cycle::total         2816404                       # Number of insts issued each cycle
system.cpu.iq.rate                           1.217612                       # Inst issue rate
system.cpu.iq.vec_alu_accesses                  32422                       # Number of vector alu accesses
system.cpu.iq.vec_inst_queue_reads              65056                       # Number of vector instruction queue reads
system.cpu.iq.vec_inst_queue_wakeup_accesses        31064                       # Number of vector instruction queue wakeup accesses
system.cpu.iq.vec_inst_queue_writes             40791                       # Number of vector instruction queue writes
system.cpu.itb.accesses                             0                       # DTB accesses
system.cpu.itb.align_faults                         0                       # Number of TLB faults due to alignment restrictions
system.cpu.itb.domain_faults                        0                       # Number of TLB faults due to domain restrictions
system.cpu.itb.flush_entries                        0                       # Number of entries that have been flushed from TLB
system.cpu.itb.flush_tlb                            0                       # Number of times complete TLB was flushed
system.cpu.itb.flush_tlb_asid                       0                       # Number of times TLB was flushed by ASID
system.cpu.itb.flush_tlb_mva                        0                       # Number of times TLB was flushed by MVA
system.cpu.itb.flush_tlb_mva_asid                   0                       # Number of times TLB was flushed by MVA & ASID
system.cpu.itb.hits                                 0                       # DTB hits
system.cpu.itb.inst_accesses                        0                       # ITB inst accesses
system.cpu.itb.inst_hits                            0                       # ITB inst hits
system.cpu.itb.inst_misses                          0                       # ITB inst misses
system.cpu.itb.misses                               0                       # DTB misses
system.cpu.itb.perms_faults                         0                       # Number of TLB faults due to permissions restrictions
system.cpu.itb.prefetch_faults                      0                       # Number of TLB faults due to prefetch
system.cpu.itb.read_accesses                        0                       # DTB read accesses
system.cpu.itb.read_hits                            0                       # DTB read hits
system.cpu.itb.read_misses                          0                       # DTB read misses
system.cpu.itb.stage2_mmu.stage2_tlb.accesses            0                       # DTB accesses
system.cpu.itb.stage2_mmu.stage2_tlb.align_faults            0                       # Number of TLB faults due to alignment restrictions
system.cpu.itb.stage2_mmu.stage2_tlb.domain_faults            0                       # Number of TLB faults due to domain restrictions
system.cpu.itb.stage2_mmu.stage2_tlb.flush_entries            0                       # Number of entries that have been flushed from TLB
system.cpu.itb.stage2_mmu.stage2_tlb.flush_tlb            0                       # Number of times complete TLB was flushed
system.cpu.itb.stage2_mmu.stage2_tlb.flush_tlb_asid            0                       # Number of times TLB was flushed by ASID
system.cpu.itb.stage2_mmu.stage2_tlb.flush_tlb_mva            0                       # Number of times TLB was flushed by MVA
system.cpu.itb.stage2_mmu.stage2_tlb.flush_tlb_mva_asid            0                       # Number of times TLB was flushed by MVA & ASID
system.cpu.itb.stage2_mmu.stage2_tlb.hits            0                       # DTB hits
system.cpu.itb.stage2_mmu.stage2_tlb.inst_accesses            0                       # ITB inst accesses
system.cpu.itb.stage2_mmu.stage2_tlb.inst_hits            0                       # ITB inst hits
system.cpu.itb.stage2_mmu.stage2_tlb.inst_misses            0                       # ITB inst misses
system.cpu.itb.stage2_mmu.stage2_tlb.misses            0                       # DTB misses
system.cpu.itb.stage2_mmu.stage2_tlb.perms_faults            0                       # Number of TLB faults due to permissions restrictions
system.cpu.itb.stage2_mmu.stage2_tlb.prefetch_faults            0                       # Number of TLB faults due to prefetch
system.cpu.itb.stage2_mmu.stage2_tlb.read_accesses            0                       # DTB read accesses
system.cpu.itb.stage2_mmu.stage2_tlb.read_hits            0                       # DTB read hits
system.cpu.itb.stage2_mmu.stage2_tlb.read_misses            0                       # DTB read misses
system.cpu.itb.stage2_mmu.stage2_tlb.walker.walkRequestOrigin_Requested::Data            0                       # Table walker requests started/completed, data/inst
system.cpu.itb.stage2_mmu.stage2_tlb.walker.walkRequestOrigin_Requested::Inst            0                       # Table walker requests started/completed, data/inst
system.cpu.itb.stage2_mmu.stage2_tlb.walker.walkRequestOrigin_Requested::total            0                       # Table walker requests started/completed, data/inst
system.cpu.itb.stage2_mmu.stage2_tlb.walker.walkRequestOrigin_Completed::Data            0                       # Table walker requests started/completed, data/inst
system.cpu.itb.stage2_mmu.stage2_tlb.walker.walkRequestOrigin_Completed::Inst            0                       # Table walker requests started/completed, data/inst
system.cpu.itb.stage2_mmu.stage2_tlb.walker.walkRequestOrigin_Completed::total            0                       # Table walker requests started/completed, data/inst
system.cpu.itb.stage2_mmu.stage2_tlb.walker.walkRequestOrigin::total            0                       # Table walker requests started/completed, data/inst
system.cpu.itb.stage2_mmu.stage2_tlb.walker.walks            0                       # Table walker walks requested
system.cpu.itb.stage2_mmu.stage2_tlb.write_accesses            0                       # DTB write accesses
system.cpu.itb.stage2_mmu.stage2_tlb.write_hits            0                       # DTB write hits
system.cpu.itb.stage2_mmu.stage2_tlb.write_misses            0                       # DTB write misses
system.cpu.itb.walker.walkRequestOrigin_Requested::Data            0                       # Table walker requests started/completed, data/inst
system.cpu.itb.walker.walkRequestOrigin_Requested::Inst            0                       # Table walker requests started/completed, data/inst
system.cpu.itb.walker.walkRequestOrigin_Requested::total            0                       # Table walker requests started/completed, data/inst
system.cpu.itb.walker.walkRequestOrigin_Completed::Data            0                       # Table walker requests started/completed, data/inst
system.cpu.itb.walker.walkRequestOrigin_Completed::Inst            0                       # Table walker requests started/completed, data/inst
system.cpu.itb.walker.walkRequestOrigin_Completed::total            0                       # Table walker requests started/completed, data/inst
system.cpu.itb.walker.walkRequestOrigin::total            0                       # Table walker requests started/completed, data/inst
system.cpu.itb.walker.walks                         0                       # Table walker walks requested
system.cpu.itb.write_accesses                       0                       # DTB write accesses
system.cpu.itb.write_hits                           0                       # DTB write hits
system.cpu.itb.write_misses                         0                       # DTB write misses
system.cpu.memDep0.conflictingLoads              5447                       # Number of conflicting loads.
system.cpu.memDep0.conflictingStores             4974                       # Number of conflicting stores.
system.cpu.memDep0.insertedLoads               508298                       # Number of loads inserted to the mem dependence unit.
system.cpu.memDep0.insertedStores              476176                       # Number of stores inserted to the mem dependence unit.
system.cpu.misc_regfile_reads                 2452948                       # number of misc regfile reads
system.cpu.misc_regfile_writes                   6559                       # number of misc regfile writes
system.cpu.numCycles                          2911641                       # number of cpu cycles simulated
system.cpu.numWorkItemsCompleted                    0                       # number of work items this cpu completed
system.cpu.numWorkItemsStarted                      0                       # number of work items this cpu started
system.cpu.rename.BlockCycles                  112924                       # Number of cycles rename is blocking
system.cpu.rename.CommittedMaps               3318812                       # Number of HB maps that are committed
system.cpu.rename.IQFullEvents                  49244                       # Number of times rename has blocked due to IQ full
system.cpu.rename.IdleCycles                   374637                       # Number of cycles rename is idle
system.cpu.rename.LQFullEvents                    219                       # Number of times rename has blocked due to LQ full
system.cpu.rename.ROBFullEvents                   430                       # Number of times rename has blocked due to ROB full
system.cpu.rename.RenameLookups               5444172                       # Number of register rename lookups that rename has made
system.cpu.rename.RenamedInsts                3633603                       # Number of instructions processed by rename
system.cpu.rename.RenamedOperands             3681213                       # Number of destination operands rename has renamed
system.cpu.rename.RunCycles                    552222                       # Number of cycles rename is running
system.cpu.rename.SQFullEvents                 256399                       # Number of times rename has blocked due to SQ full
system.cpu.rename.SquashCycles                   9036                       # Number of cycles rename is squashing
system.cpu.rename.UnblockCycles                348371                       # Number of cycles rename is unblocking
system.cpu.rename.UndoneMaps                   362401                       # Number of HB maps that are undone due to squashing
system.cpu.rename.int_rename_lookups          4107394                       # Number of integer rename lookups
system.cpu.rename.serializeStallCycles        1419214                       # count of cycles rename stalled for serializing inst
system.cpu.rename.serializingInsts              24363                       # count of serializing insts renamed
system.cpu.rename.skidInsts                    406749                       # count of insts added to the skid buffer
system.cpu.rename.tempSerializingInsts            534                       # count of temporary serializing insts renamed
system.cpu.rename.vec_rename_lookups            36581                       # Number of vector rename lookups
system.cpu.rob.rob_reads                      6150687                       # The number of ROB reads
system.cpu.rob.rob_writes                     7244815                       # The number of ROB writes
system.cpu.timesIdled                            1476                       # Number of times that the entire CPU went into an idle state and unscheduled itself
system.cpu.vec_regfile_reads                    31924                       # number of vector regfile reads
system.cpu.vec_regfile_writes                   10060                       # number of vector regfile writes
system.cpu.workload.numSyscalls                   109                       # Number of system calls
system.membus.snoop_filter.hit_multi_requests            0                       # Number of requests hitting in the snoop filter with multiple (>1) holders of the requested data.
system.membus.snoop_filter.hit_multi_snoops            0                       # Number of snoops hitting in the snoop filter with multiple (>1) holders of the requested data.
system.membus.snoop_filter.hit_single_requests          434                       # Number of requests hitting in the snoop filter with a single holder of the requested data.
system.membus.snoop_filter.hit_single_snoops            0                       # Number of snoops hitting in the snoop filter with a single holder of the requested data.
system.membus.snoop_filter.tot_requests         27827                       # Total number of requests made to the snoop filter.
system.membus.snoop_filter.tot_snoops               0                       # Total number of snoops made to the snoop filter.
system.tol2bus.snoop_filter.hit_multi_requests            1                       # Number of requests hitting in the snoop filter with multiple (>1) holders of the requested data.
system.tol2bus.snoop_filter.hit_multi_snoops            0                       # Number of snoops hitting in the snoop filter with multiple (>1) holders of the requested data.
system.tol2bus.snoop_filter.hit_single_requests        29338                       # Number of requests hitting in the snoop filter with a single holder of the requested data.
system.tol2bus.snoop_filter.hit_single_snoops           34                       # Number of snoops hitting in the snoop filter with a single holder of the requested data.
system.tol2bus.snoop_filter.tot_requests        59698                       # Total number of requests made to the snoop filter.
system.tol2bus.snoop_filter.tot_snoops             34                       # Total number of snoops made to the snoop filter.
system.membus.trans_dist::ReadResp               1882                       # Transaction distribution
system.membus.trans_dist::WritebackDirty          328                       # Transaction distribution
system.membus.trans_dist::CleanEvict              106                       # Transaction distribution
system.membus.trans_dist::ReadExReq              8907                       # Transaction distribution
system.membus.trans_dist::ReadExResp             8907                       # Transaction distribution
system.membus.trans_dist::ReadSharedReq          1882                       # Transaction distribution
system.membus.trans_dist::InvalidateReq         16604                       # Transaction distribution
system.membus.pkt_count_system.l2.mem_side::system.mem_ctrls.port        38616                       # Packet count per connected master and slave (bytes)
system.membus.pkt_count::total                  38616                       # Packet count per connected master and slave (bytes)
system.membus.pkt_size_system.l2.mem_side::system.mem_ctrls.port       711488                       # Cumulative packet size per connected master and slave (bytes)
system.membus.pkt_size::total                  711488                       # Cumulative packet size per connected master and slave (bytes)
system.membus.snoops                                0                       # Total snoops (count)
system.membus.snoopTraffic                          0                       # Total snoop traffic (bytes)
system.membus.snoop_fanout::samples             27393                       # Request fanout histogram
system.membus.snoop_fanout::mean                    0                       # Request fanout histogram
system.membus.snoop_fanout::stdev                   0                       # Request fanout histogram
system.membus.snoop_fanout::underflows              0      0.00%      0.00% # Request fanout histogram
system.membus.snoop_fanout::0                   27393    100.00%    100.00% # Request fanout histogram
system.membus.snoop_fanout::1                       0      0.00%    100.00% # Request fanout histogram
system.membus.snoop_fanout::overflows               0      0.00%    100.00% # Request fanout histogram
system.membus.snoop_fanout::min_value               0                       # Request fanout histogram
system.membus.snoop_fanout::max_value               0                       # Request fanout histogram
system.membus.snoop_fanout::total               27393                       # Request fanout histogram
system.membus.reqLayer0.occupancy            32242500                       # Layer occupancy (ticks)
system.membus.reqLayer0.utilization               2.2                       # Layer utilization (%)
system.membus.respLayer1.occupancy           57220750                       # Layer occupancy (ticks)
system.membus.respLayer1.utilization              3.9                       # Layer utilization (%)
system.membus.power_state.pwrStateResidencyTicks::UNDEFINED   1455819500                       # Cumulative time (in ticks) in various power states
system.tol2bus.trans_dist::ReadResp              4275                       # Transaction distribution
system.tol2bus.trans_dist::WritebackDirty        26781                       # Transaction distribution
system.tol2bus.trans_dist::WritebackClean         1985                       # Transaction distribution
system.tol2bus.trans_dist::CleanEvict            1040                       # Transaction distribution
system.tol2bus.trans_dist::ReadExReq             9241                       # Transaction distribution
system.tol2bus.trans_dist::ReadExResp            9241                       # Transaction distribution
system.tol2bus.trans_dist::ReadCleanReq          2495                       # Transaction distribution
system.tol2bus.trans_dist::ReadSharedReq         1781                       # Transaction distribution
system.tol2bus.trans_dist::InvalidateReq        16843                       # Transaction distribution
system.tol2bus.trans_dist::InvalidateResp        16843                       # Transaction distribution
system.tol2bus.pkt_count_system.cpu.icache.mem_side::system.l2.cpu_side         6974                       # Packet count per connected master and slave (bytes)
system.tol2bus.pkt_count_system.cpu.dcache.mem_side::system.l2.cpu_side        83083                       # Packet count per connected master and slave (bytes)
system.tol2bus.pkt_count::total                 90057                       # Packet count per connected master and slave (bytes)
system.tol2bus.pkt_size_system.cpu.icache.mem_side::system.l2.cpu_side       286656                       # Cumulative packet size per connected master and slave (bytes)
system.tol2bus.pkt_size_system.cpu.dcache.mem_side::system.l2.cpu_side      2398400                       # Cumulative packet size per connected master and slave (bytes)
system.tol2bus.pkt_size::total                2685056                       # Cumulative packet size per connected master and slave (bytes)
system.tol2bus.snoops                             468                       # Total snoops (count)
system.tol2bus.snoopTraffic                     20992                       # Total snoop traffic (bytes)
system.tol2bus.snoop_fanout::samples            30828                       # Request fanout histogram
system.tol2bus.snoop_fanout::mean            0.001135                       # Request fanout histogram
system.tol2bus.snoop_fanout::stdev           0.033676                       # Request fanout histogram
system.tol2bus.snoop_fanout::underflows             0      0.00%      0.00% # Request fanout histogram
system.tol2bus.snoop_fanout::0                  30793     99.89%     99.89% # Request fanout histogram
system.tol2bus.snoop_fanout::1                     35      0.11%    100.00% # Request fanout histogram
system.tol2bus.snoop_fanout::2                      0      0.00%    100.00% # Request fanout histogram
system.tol2bus.snoop_fanout::overflows              0      0.00%    100.00% # Request fanout histogram
system.tol2bus.snoop_fanout::min_value              0                       # Request fanout histogram
system.tol2bus.snoop_fanout::max_value              1                       # Request fanout histogram
system.tol2bus.snoop_fanout::total              30828                       # Request fanout histogram
system.tol2bus.reqLayer0.occupancy           58287000                       # Layer occupancy (ticks)
system.tol2bus.reqLayer0.utilization              4.0                       # Layer utilization (%)
system.tol2bus.respLayer1.occupancy          24954500                       # Layer occupancy (ticks)
system.tol2bus.respLayer1.utilization             1.7                       # Layer utilization (%)
system.tol2bus.respLayer0.occupancy           3741000                       # Layer occupancy (ticks)
system.tol2bus.respLayer0.utilization             0.3                       # Layer utilization (%)
system.tol2bus.power_state.pwrStateResidencyTicks::UNDEFINED   1455819500                       # Cumulative time (in ticks) in various power states
system.voltage_domain.voltage                       1                       # Voltage in Volts
system.clk_domain.clock                          1000                       # Clock period in ticks
system.l2.demand_hits::.cpu.inst                 1234                       # number of demand (read+write) hits
system.l2.demand_hits::.cpu.data                 1493                       # number of demand (read+write) hits
system.l2.demand_hits::total                     2727                       # number of demand (read+write) hits
system.l2.overall_hits::.cpu.inst                1234                       # number of overall hits
system.l2.overall_hits::.cpu.data                1493                       # number of overall hits
system.l2.overall_hits::total                    2727                       # number of overall hits
system.l2.demand_misses::.cpu.inst               1261                       # number of demand (read+write) misses
system.l2.demand_misses::.cpu.data               9529                       # number of demand (read+write) misses
system.l2.demand_misses::total                  10790                       # number of demand (read+write) misses
system.l2.overall_misses::.cpu.inst              1261                       # number of overall misses
system.l2.overall_misses::.cpu.data              9529                       # number of overall misses
system.l2.overall_misses::total                 10790                       # number of overall misses
system.l2.demand_miss_latency::.cpu.inst     98922000                       # number of demand (read+write) miss cycles
system.l2.demand_miss_latency::.cpu.data    743004000                       # number of demand (read+write) miss cycles
system.l2.demand_miss_latency::total        841926000                       # number of demand (read+write) miss cycles
system.l2.overall_miss_latency::.cpu.inst     98922000                       # number of overall miss cycles
system.l2.overall_miss_latency::.cpu.data    743004000                       # number of overall miss cycles
system.l2.overall_miss_latency::total       841926000                       # number of overall miss cycles
system.l2.demand_accesses::.cpu.inst             2495                       # number of demand (read+write) accesses
system.l2.demand_accesses::.cpu.data            11022                       # number of demand (read+write) accesses
system.l2.demand_accesses::total                13517                       # number of demand (read+write) accesses
system.l2.overall_accesses::.cpu.inst            2495                       # number of overall (read+write) accesses
system.l2.overall_accesses::.cpu.data           11022                       # number of overall (read+write) accesses
system.l2.overall_accesses::total               13517                       # number of overall (read+write) accesses
system.l2.demand_miss_rate::.cpu.inst        0.505411                       # miss rate for demand accesses
system.l2.demand_miss_rate::.cpu.data        0.864544                       # miss rate for demand accesses
system.l2.demand_miss_rate::total            0.798254                       # miss rate for demand accesses
[...]
system.cpu.dcache.demand_accesses::.cpu.data       916484                       # number of demand (read+write) accesses
system.cpu.dcache.demand_accesses::total       916484                       # number of demand (read+write) accesses
system.cpu.dcache.overall_accesses::.cpu.data       916541                       # number of overall (read+write) accesses
system.cpu.dcache.overall_accesses::total       916541                       # number of overall (read+write) accesses
system.cpu.dcache.demand_miss_rate::.cpu.data     0.059835                       # miss rate for demand accesses
system.cpu.dcache.demand_miss_rate::total     0.059835                       # miss rate for demand accesses
system.cpu.dcache.overall_miss_rate::.cpu.data     0.059837                       # miss rate for overall accesses
system.cpu.dcache.overall_miss_rate::total     0.059837                       # miss rate for overall accesses
system.cpu.dcache.demand_avg_miss_latency::.cpu.data 57497.805974                       # average overall miss latency
system.cpu.dcache.demand_avg_miss_latency::total 57497.805974                       # average overall miss latency
system.cpu.dcache.overall_avg_miss_latency::.cpu.data 57492.563937                       # average overall miss latency
system.cpu.dcache.overall_avg_miss_latency::total 57492.563937                       # average overall miss latency
system.cpu.dcache.blocked_cycles::no_mshrs       267716                       # number of cycles access was blocked
system.cpu.dcache.blocked_cycles::no_targets            0                       # number of cycles access was blocked
system.cpu.dcache.blocked::no_mshrs             16370                       # number of cycles access was blocked
system.cpu.dcache.blocked::no_targets               0                       # number of cycles access was blocked
system.cpu.dcache.avg_blocked_cycles::no_mshrs    16.354062                       # average number of cycles each access was blocked
system.cpu.dcache.avg_blocked_cycles::no_targets          nan                       # average number of cycles each access was blocked
system.cpu.dcache.writebacks::.writebacks        26453                       # number of writebacks
system.cpu.dcache.writebacks::total             26453                       # number of writebacks
system.cpu.dcache.demand_mshr_hits::.cpu.data        26979                       # number of demand (read+write) MSHR hits
system.cpu.dcache.demand_mshr_hits::total        26979                       # number of demand (read+write) MSHR hits
system.cpu.dcache.overall_mshr_hits::.cpu.data        26979                       # number of overall MSHR hits
system.cpu.dcache.overall_mshr_hits::total        26979                       # number of overall MSHR hits
system.cpu.dcache.demand_mshr_misses::.cpu.data        27859                       # number of demand (read+write) MSHR misses
system.cpu.dcache.demand_mshr_misses::total        27859                       # number of demand (read+write) MSHR misses
system.cpu.dcache.overall_mshr_misses::.cpu.data        27862                       # number of overall MSHR misses
system.cpu.dcache.overall_mshr_misses::total        27862                       # number of overall MSHR misses
system.cpu.dcache.demand_mshr_miss_latency::.cpu.data   1307773072                       # number of demand (read+write) MSHR miss cycles
system.cpu.dcache.demand_mshr_miss_latency::total   1307773072                       # number of demand (read+write) MSHR miss cycles
system.cpu.dcache.overall_mshr_miss_latency::.cpu.data   1308043072                       # number of overall MSHR miss cycles
system.cpu.dcache.overall_mshr_miss_latency::total   1308043072                       # number of overall MSHR miss cycles
system.cpu.dcache.demand_mshr_miss_rate::.cpu.data     0.030398                       # mshr miss rate for demand accesses
system.cpu.dcache.demand_mshr_miss_rate::total     0.030398                       # mshr miss rate for demand accesses
system.cpu.dcache.overall_mshr_miss_rate::.cpu.data     0.030399                       # mshr miss rate for overall accesses
system.cpu.dcache.overall_mshr_miss_rate::total     0.030399                       # mshr miss rate for overall accesses
system.cpu.dcache.demand_avg_mshr_miss_latency::.cpu.data 46942.570516                       # average overall mshr miss latency
system.cpu.dcache.demand_avg_mshr_miss_latency::total 46942.570516                       # average overall mshr miss latency
system.cpu.dcache.overall_avg_mshr_miss_latency::.cpu.data 46947.206661                       # average overall mshr miss latency
system.cpu.dcache.overall_avg_mshr_miss_latency::total 46947.206661                       # average overall mshr miss latency
system.cpu.dcache.replacements                  27353                       # number of replacements
system.cpu.dcache.ReadReq_hits::.cpu.data       478061                       # number of ReadReq hits
system.cpu.dcache.ReadReq_hits::total          478061                       # number of ReadReq hits
system.cpu.dcache.ReadReq_misses::.cpu.data         3898                       # number of ReadReq misses
system.cpu.dcache.ReadReq_misses::total          3898                       # number of ReadReq misses
system.cpu.dcache.ReadReq_miss_latency::.cpu.data    155063500                       # number of ReadReq miss cycles
system.cpu.dcache.ReadReq_miss_latency::total    155063500                       # number of ReadReq miss cycles
system.cpu.dcache.ReadReq_accesses::.cpu.data       481959                       # number of ReadReq accesses(hits+misses)
system.cpu.dcache.ReadReq_accesses::total       481959                       # number of ReadReq accesses(hits+misses)
system.cpu.dcache.ReadReq_miss_rate::.cpu.data     0.008088                       # miss rate for ReadReq accesses
system.cpu.dcache.ReadReq_miss_rate::total     0.008088                       # miss rate for ReadReq accesses
system.cpu.dcache.ReadReq_avg_miss_latency::.cpu.data 39780.271934                       # average ReadReq miss latency
system.cpu.dcache.ReadReq_avg_miss_latency::total 39780.271934                       # average ReadReq miss latency
system.cpu.dcache.ReadReq_mshr_hits::.cpu.data         2122                       # number of ReadReq MSHR hits
system.cpu.dcache.ReadReq_mshr_hits::total         2122                       # number of ReadReq MSHR hits
system.cpu.dcache.ReadReq_mshr_misses::.cpu.data         1776                       # number of ReadReq MSHR misses
system.cpu.dcache.ReadReq_mshr_misses::total         1776                       # number of ReadReq MSHR misses
system.cpu.dcache.ReadReq_mshr_miss_latency::.cpu.data     65499500                       # number of ReadReq MSHR miss cycles
system.cpu.dcache.ReadReq_mshr_miss_latency::total     65499500                       # number of ReadReq MSHR miss cycles
system.cpu.dcache.ReadReq_mshr_miss_rate::.cpu.data     0.003685                       # mshr miss rate for ReadReq accesses
system.cpu.dcache.ReadReq_mshr_miss_rate::total     0.003685                       # mshr miss rate for ReadReq accesses
system.cpu.dcache.ReadReq_avg_mshr_miss_latency::.cpu.data 36880.349099                       # average ReadReq mshr miss latency
system.cpu.dcache.ReadReq_avg_mshr_miss_latency::total 36880.349099                       # average ReadReq mshr miss latency
system.cpu.dcache.WriteReq_hits::.cpu.data       383505                       # number of WriteReq hits
system.cpu.dcache.WriteReq_hits::total         383505                       # number of WriteReq hits
system.cpu.dcache.WriteReq_misses::.cpu.data        34102                       # number of WriteReq misses
system.cpu.dcache.WriteReq_misses::total        34102                       # number of WriteReq misses
system.cpu.dcache.WriteReq_miss_latency::.cpu.data   2448989047                       # number of WriteReq miss cycles
system.cpu.dcache.WriteReq_miss_latency::total   2448989047                       # number of WriteReq miss cycles
system.cpu.dcache.WriteReq_accesses::.cpu.data       417607                       # number of WriteReq accesses(hits+misses)
system.cpu.dcache.WriteReq_accesses::total       417607                       # number of WriteReq accesses(hits+misses)
system.cpu.dcache.WriteReq_miss_rate::.cpu.data     0.081661                       # miss rate for WriteReq accesses
system.cpu.dcache.WriteReq_miss_rate::total     0.081661                       # miss rate for WriteReq accesses
system.cpu.dcache.WriteReq_avg_miss_latency::.cpu.data 71813.648672                       # average WriteReq miss latency
system.cpu.dcache.WriteReq_avg_miss_latency::total 71813.648672                       # average WriteReq miss latency
system.cpu.dcache.WriteReq_mshr_hits::.cpu.data        24857                       # number of WriteReq MSHR hits
system.cpu.dcache.WriteReq_mshr_hits::total        24857                       # number of WriteReq MSHR hits
system.cpu.dcache.WriteReq_mshr_misses::.cpu.data         9245                       # number of WriteReq MSHR misses
system.cpu.dcache.WriteReq_mshr_misses::total         9245                       # number of WriteReq MSHR misses
system.cpu.dcache.WriteReq_mshr_miss_latency::.cpu.data    710099435                       # number of WriteReq MSHR miss cycles
system.cpu.dcache.WriteReq_mshr_miss_latency::total    710099435                       # number of WriteReq MSHR miss cycles
system.cpu.dcache.WriteReq_mshr_miss_rate::.cpu.data     0.022138                       # mshr miss rate for WriteReq accesses
system.cpu.dcache.WriteReq_mshr_miss_rate::total     0.022138                       # mshr miss rate for WriteReq accesses
system.cpu.dcache.WriteReq_avg_mshr_miss_latency::.cpu.data 76809.024878                       # average WriteReq mshr miss latency
system.cpu.dcache.WriteReq_avg_mshr_miss_latency::total 76809.024878                       # average WriteReq mshr miss latency
system.cpu.dcache.SoftPFReq_hits::.cpu.data           52                       # number of SoftPFReq hits
system.cpu.dcache.SoftPFReq_hits::total            52                       # number of SoftPFReq hits
system.cpu.dcache.SoftPFReq_misses::.cpu.data            5                       # number of SoftPFReq misses
system.cpu.dcache.SoftPFReq_misses::total            5                       # number of SoftPFReq misses
system.cpu.dcache.SoftPFReq_accesses::.cpu.data           57                       # number of SoftPFReq accesses(hits+misses)
system.cpu.dcache.SoftPFReq_accesses::total           57                       # number of SoftPFReq accesses(hits+misses)
system.cpu.dcache.SoftPFReq_miss_rate::.cpu.data     0.087719                       # miss rate for SoftPFReq accesses
system.cpu.dcache.SoftPFReq_miss_rate::total     0.087719                       # miss rate for SoftPFReq accesses
system.cpu.dcache.SoftPFReq_mshr_misses::.cpu.data            3                       # number of SoftPFReq MSHR misses
system.cpu.dcache.SoftPFReq_mshr_misses::total            3                       # number of SoftPFReq MSHR misses
system.cpu.dcache.SoftPFReq_mshr_miss_latency::.cpu.data       270000                       # number of SoftPFReq MSHR miss cycles
system.cpu.dcache.SoftPFReq_mshr_miss_latency::total       270000                       # number of SoftPFReq MSHR miss cycles
system.cpu.dcache.SoftPFReq_mshr_miss_rate::.cpu.data     0.052632                       # mshr miss rate for SoftPFReq accesses
system.cpu.dcache.SoftPFReq_mshr_miss_rate::total     0.052632                       # mshr miss rate for SoftPFReq accesses
system.cpu.dcache.SoftPFReq_avg_mshr_miss_latency::.cpu.data        90000                       # average SoftPFReq mshr miss latency
system.cpu.dcache.SoftPFReq_avg_mshr_miss_latency::total        90000                       # average SoftPFReq mshr miss latency
system.cpu.dcache.WriteLineReq_hits::.cpu.data           80                       # number of WriteLineReq hits
system.cpu.dcache.WriteLineReq_hits::total           80                       # number of WriteLineReq hits
system.cpu.dcache.WriteLineReq_misses::.cpu.data        16838                       # number of WriteLineReq misses
system.cpu.dcache.WriteLineReq_misses::total        16838                       # number of WriteLineReq misses
system.cpu.dcache.WriteLineReq_miss_latency::.cpu.data    549012137                       # number of WriteLineReq miss cycles
system.cpu.dcache.WriteLineReq_miss_latency::total    549012137                       # number of WriteLineReq miss cycles
system.cpu.dcache.WriteLineReq_accesses::.cpu.data        16918                       # number of WriteLineReq accesses(hits+misses)
system.cpu.dcache.WriteLineReq_accesses::total        16918                       # number of WriteLineReq accesses(hits+misses)
system.cpu.dcache.WriteLineReq_miss_rate::.cpu.data     0.995271                       # miss rate for WriteLineReq accesses
system.cpu.dcache.WriteLineReq_miss_rate::total     0.995271                       # miss rate for WriteLineReq accesses
system.cpu.dcache.WriteLineReq_avg_miss_latency::.cpu.data 32605.543236                       # average WriteLineReq miss latency
system.cpu.dcache.WriteLineReq_avg_miss_latency::total 32605.543236                       # average WriteLineReq miss latency
system.cpu.dcache.WriteLineReq_mshr_misses::.cpu.data        16838                       # number of WriteLineReq MSHR misses
system.cpu.dcache.WriteLineReq_mshr_misses::total        16838                       # number of WriteLineReq MSHR misses
system.cpu.dcache.WriteLineReq_mshr_miss_latency::.cpu.data    532174137                       # number of WriteLineReq MSHR miss cycles
system.cpu.dcache.WriteLineReq_mshr_miss_latency::total    532174137                       # number of WriteLineReq MSHR miss cycles
system.cpu.dcache.WriteLineReq_mshr_miss_rate::.cpu.data     0.995271                       # mshr miss rate for WriteLineReq accesses
system.cpu.dcache.WriteLineReq_mshr_miss_rate::total     0.995271                       # mshr miss rate for WriteLineReq accesses
system.cpu.dcache.WriteLineReq_avg_mshr_miss_latency::.cpu.data 31605.543236                       # average WriteLineReq mshr miss latency
system.cpu.dcache.WriteLineReq_avg_mshr_miss_latency::total 31605.543236                       # average WriteLineReq mshr miss latency
system.cpu.dcache.LoadLockedReq_hits::.cpu.data          295                       # number of LoadLockedReq hits
system.cpu.dcache.LoadLockedReq_hits::total          295                       # number of LoadLockedReq hits
system.cpu.dcache.LoadLockedReq_misses::.cpu.data            7                       # number of LoadLockedReq misses
system.cpu.dcache.LoadLockedReq_misses::total            7                       # number of LoadLockedReq misses
system.cpu.dcache.LoadLockedReq_miss_latency::.cpu.data       346000                       # number of LoadLockedReq miss cycles
system.cpu.dcache.LoadLockedReq_miss_latency::total       346000                       # number of LoadLockedReq miss cycles
system.cpu.dcache.LoadLockedReq_accesses::.cpu.data          302                       # number of LoadLockedReq accesses(hits+misses)
system.cpu.dcache.LoadLockedReq_accesses::total          302                       # number of LoadLockedReq accesses(hits+misses)
system.cpu.dcache.LoadLockedReq_miss_rate::.cpu.data     0.023179                       # miss rate for LoadLockedReq accesses
system.cpu.dcache.LoadLockedReq_miss_rate::total     0.023179                       # miss rate for LoadLockedReq accesses
system.cpu.dcache.LoadLockedReq_avg_miss_latency::.cpu.data 49428.571429                       # average LoadLockedReq miss latency
system.cpu.dcache.LoadLockedReq_avg_miss_latency::total 49428.571429                       # average LoadLockedReq miss latency
system.cpu.dcache.LoadLockedReq_mshr_hits::.cpu.data            4                       # number of LoadLockedReq MSHR hits
system.cpu.dcache.LoadLockedReq_mshr_hits::total            4                       # number of LoadLockedReq MSHR hits
system.cpu.dcache.LoadLockedReq_mshr_misses::.cpu.data            3                       # number of LoadLockedReq MSHR misses
system.cpu.dcache.LoadLockedReq_mshr_misses::total            3                       # number of LoadLockedReq MSHR misses
system.cpu.dcache.LoadLockedReq_mshr_miss_latency::.cpu.data       123000                       # number of LoadLockedReq MSHR miss cycles
system.cpu.dcache.LoadLockedReq_mshr_miss_latency::total       123000                       # number of LoadLockedReq MSHR miss cycles
system.cpu.dcache.LoadLockedReq_mshr_miss_rate::.cpu.data     0.009934                       # mshr miss rate for LoadLockedReq accesses
system.cpu.dcache.LoadLockedReq_mshr_miss_rate::total     0.009934                       # mshr miss rate for LoadLockedReq accesses
system.cpu.dcache.LoadLockedReq_avg_mshr_miss_latency::.cpu.data        41000                       # average LoadLockedReq mshr miss latency
system.cpu.dcache.LoadLockedReq_avg_mshr_miss_latency::total        41000                       # average LoadLockedReq mshr miss latency
system.cpu.dcache.StoreCondReq_hits::.cpu.data          278                       # number of StoreCondReq hits
system.cpu.dcache.StoreCondReq_hits::total          278                       # number of StoreCondReq hits
system.cpu.dcache.StoreCondReq_accesses::.cpu.data          278                       # number of StoreCondReq accesses(hits+misses)
system.cpu.dcache.StoreCondReq_accesses::total          278                       # number of StoreCondReq accesses(hits+misses)
system.cpu.dcache.power_state.pwrStateResidencyTicks::UNDEFINED   1455819500                       # Cumulative time (in ticks) in various power states
system.cpu.dcache.tags.tagsinuse           502.009915                       # Cycle average of tags in use
system.cpu.dcache.tags.total_refs              890136                       # Total number of references to valid blocks.
system.cpu.dcache.tags.sampled_refs             27865                       # Sample count of references to valid blocks.
system.cpu.dcache.tags.avg_refs             31.944590                       # Average number of references to valid blocks.
system.cpu.dcache.tags.warmup_cycle            176500                       # Cycle when the warmup percentage was hit.
system.cpu.dcache.tags.occ_blocks::.cpu.data   502.009915                       # Average occupied blocks per requestor
system.cpu.dcache.tags.occ_percent::.cpu.data     0.980488                       # Average percentage of cache occupancy
system.cpu.dcache.tags.occ_percent::total     0.980488                       # Average percentage of cache occupancy
system.cpu.dcache.tags.occ_task_id_blocks::1024          512                       # Occupied blocks per task id
system.cpu.dcache.tags.age_task_id_blocks_1024::0           61                       # Occupied blocks per task id
system.cpu.dcache.tags.age_task_id_blocks_1024::1          353                       # Occupied blocks per task id
system.cpu.dcache.tags.age_task_id_blocks_1024::2           98                       # Occupied blocks per task id
system.cpu.dcache.tags.occ_task_id_percent::1024            1                       # Percentage of cache occupancy per task id
system.cpu.dcache.tags.tag_accesses           1862107                       # Number of tag accesses
system.cpu.dcache.tags.data_accesses          1862107                       # Number of data accesses
system.cpu.dcache.tags.power_state.pwrStateResidencyTicks::UNDEFINED   1455819500                       # Cumulative time (in ticks) in various power states
system.cpu.power_state.pwrStateResidencyTicks::ON   1455819500                       # Cumulative time (in ticks) in various power states

---------- End Simulation Statistics   ----------
