
---------- Begin Simulation Statistics ----------
final_tick                                 2567309500                       # Number of ticks from beginning of simulation (restored from checkpoints and never reset)
host_inst_rate                                 174484                       # Simulator instruction rate (inst/s)
host_mem_usage                                 715696                       # Number of bytes of host memory used
host_op_rate                                   174529                       # Simulator op (including micro ops) rate (op/s)
host_seconds                                    24.50                       # Real time elapsed on the host
host_tick_rate                              104785944                       # Simulator tick rate (ticks/s)
sim_freq                                 1000000000000                       # Frequency of simulated ticks
sim_insts                                     4274925                       # Number of instructions simulated
sim_ops                                       4276047                       # Number of ops (including micro ops) simulated
sim_seconds                                  0.002567                       # Number of seconds simulated
sim_ticks                                  2567309500                       # Number of ticks simulated
system.cpu.branchPred.BTBCorrect                    0                       # Number of correct BTB predictions (this stat may not work properly.
system.cpu.branchPred.BTBHitPct             99.567849                       # BTB Hit Percentage
system.cpu.branchPred.BTBHits                  104141                       # Number of BTB hits
system.cpu.branchPred.BTBLookups               104593                       # Number of BTB lookups
system.cpu.branchPred.RASInCorrect                 27                       # Number of incorrect RAS predictions.
system.cpu.branchPred.condIncorrect             10572                       # Number of conditional branches incorrect
system.cpu.branchPred.condPredicted            129464                       # Number of conditional branches predicted
system.cpu.branchPred.indirectHits                 16                       # Number of indirect target hits.
system.cpu.branchPred.indirectLookups             253                       # Number of indirect predictor lookups.
system.cpu.branchPred.indirectMisses              237                       # Number of indirect misses.
system.cpu.branchPred.lookups                  133715                       # Number of BP lookups
system.cpu.branchPred.loop_predictor.loopPredictorCorrect        75258                       # Number of times the loop predictor is the provider and the prediction is correct
system.cpu.branchPred.loop_predictor.loopPredictorWrong        27694                       # Number of times the loop predictor is the provider and the prediction is wrong
system.cpu.branchPred.statistical_corrector.scPredictorCorrect        17793                       # Number of time the SC predictor is the provider and the prediction is correct
system.cpu.branchPred.statistical_corrector.scPredictorWrong        85159                       # Number of time the SC predictor is the provider and the prediction is wrong
system.cpu.branchPred.tage.bimodalAltMatchProviderCorrect           21                       # Number of times TAGE Alt Match is the bimodal and it is the provider and the prediction is correct
system.cpu.branchPred.tage.bimodalAltMatchProviderWrong           13                       # Number of times TAGE Alt Match is the bimodal and it is the provider and the prediction is wrong
system.cpu.branchPred.tage.tageAltMatchProvider::0         2328                       # TAGE provider for alt match
system.cpu.branchPred.tage.tageAltMatchProvider::1            0                       # TAGE provider for alt match
system.cpu.branchPred.tage.tageAltMatchProvider::2         1308                       # TAGE provider for alt match
system.cpu.branchPred.tage.tageAltMatchProvider::3            0                       # TAGE provider for alt match
system.cpu.branchPred.tage.tageAltMatchProvider::4            1                       # TAGE provider for alt match
system.cpu.branchPred.tage.tageAltMatchProvider::5            0                       # TAGE provider for alt match
system.cpu.branchPred.tage.tageAltMatchProvider::6           68                       # TAGE provider for alt match
system.cpu.branchPred.tage.tageAltMatchProvider::7         2655                       # TAGE provider for alt match
system.cpu.branchPred.tage.tageAltMatchProvider::8            0                       # TAGE provider for alt match
system.cpu.branchPred.tage.tageAltMatchProvider::9            9                       # TAGE provider for alt match
system.cpu.branchPred.tage.tageAltMatchProvider::10         5205                       # TAGE provider for alt match
system.cpu.branchPred.tage.tageAltMatchProvider::11            3                       # TAGE provider for alt match
system.cpu.branchPred.tage.tageAltMatchProvider::12         2921                       # TAGE provider for alt match
system.cpu.branchPred.tage.tageAltMatchProvider::13         3206                       # TAGE provider for alt match
system.cpu.branchPred.tage.tageAltMatchProvider::14         4908                       # TAGE provider for alt match
system.cpu.branchPred.tage.tageAltMatchProvider::15         5858                       # TAGE provider for alt match
system.cpu.branchPred.tage.tageAltMatchProvider::16         2953                       # TAGE provider for alt match
system.cpu.branchPred.tage.tageAltMatchProvider::17         8988                       # TAGE provider for alt match
system.cpu.branchPred.tage.tageAltMatchProvider::18         5526                       # TAGE provider for alt match
system.cpu.branchPred.tage.tageAltMatchProvider::19         1155                       # TAGE provider for alt match
system.cpu.branchPred.tage.tageAltMatchProvider::20          180                       # TAGE provider for alt match
system.cpu.branchPred.tage.tageAltMatchProvider::21            0                       # TAGE provider for alt match
system.cpu.branchPred.tage.tageAltMatchProvider::22          996                       # TAGE provider for alt match
system.cpu.branchPred.tage.tageAltMatchProvider::23            0                       # TAGE provider for alt match
system.cpu.branchPred.tage.tageAltMatchProvider::24         2778                       # TAGE provider for alt match
system.cpu.branchPred.tage.tageAltMatchProvider::25            0                       # TAGE provider for alt match
system.cpu.branchPred.tage.tageAltMatchProvider::26         4261                       # TAGE provider for alt match
system.cpu.branchPred.tage.tageAltMatchProvider::27            0                       # TAGE provider for alt match
system.cpu.branchPred.tage.tageAltMatchProvider::28        18856                       # TAGE provider for alt match
system.cpu.branchPred.tage.tageAltMatchProvider::29            0                       # TAGE provider for alt match
system.cpu.branchPred.tage.tageAltMatchProvider::30            0                       # TAGE provider for alt match
system.cpu.branchPred.tage.tageAltMatchProviderCorrect          178                       # Number of times TAGE Alt Match is the provider and the prediction is correct
system.cpu.branchPred.tage.tageAltMatchProviderWouldHaveHit         3165                       # Number of times TAGE Longest Match is the provider, the prediction is wrong and Alt Match prediction was correct
system.cpu.branchPred.tage.tageAltMatchProviderWrong          182                       # Number of times TAGE Alt Match is the provider and the prediction is wrong
system.cpu.branchPred.tage.tageBimodalProviderCorrect        21185                       # Number of times there are no hits on the TAGE tables and the bimodal prediction is correct
system.cpu.branchPred.tage.tageBimodalProviderWrong          211                       # Number of times there are no hits on the TAGE tables and the bimodal prediction is wrong
system.cpu.branchPred.tage.tageLongestMatchProvider::0            0                       # TAGE provider for longest match
system.cpu.branchPred.tage.tageLongestMatchProvider::1            0                       # TAGE provider for longest match
system.cpu.branchPred.tage.tageLongestMatchProvider::2            0                       # TAGE provider for longest match
system.cpu.branchPred.tage.tageLongestMatchProvider::3            0                       # TAGE provider for longest match
system.cpu.branchPred.tage.tageLongestMatchProvider::4            4                       # TAGE provider for longest match
system.cpu.branchPred.tage.tageLongestMatchProvider::5            0                       # TAGE provider for longest match
system.cpu.branchPred.tage.tageLongestMatchProvider::6         1307                       # TAGE provider for longest match
system.cpu.branchPred.tage.tageLongestMatchProvider::7         2324                       # TAGE provider for longest match
system.cpu.branchPred.tage.tageLongestMatchProvider::8            7                       # TAGE provider for longest match
system.cpu.branchPred.tage.tageLongestMatchProvider::9            0                       # TAGE provider for longest match
system.cpu.branchPred.tage.tageLongestMatchProvider::10         2718                       # TAGE provider for longest match
system.cpu.branchPred.tage.tageLongestMatchProvider::11          845                       # TAGE provider for longest match
system.cpu.branchPred.tage.tageLongestMatchProvider::12         2371                       # TAGE provider for longest match
system.cpu.branchPred.tage.tageLongestMatchProvider::13         1905                       # TAGE provider for longest match
system.cpu.branchPred.tage.tageLongestMatchProvider::14         3017                       # TAGE provider for longest match
system.cpu.branchPred.tage.tageLongestMatchProvider::15         4914                       # TAGE provider for longest match
system.cpu.branchPred.tage.tageLongestMatchProvider::16         3200                       # TAGE provider for longest match
system.cpu.branchPred.tage.tageLongestMatchProvider::17         7044                       # TAGE provider for longest match
system.cpu.branchPred.tage.tageLongestMatchProvider::18         1681                       # TAGE provider for longest match
system.cpu.branchPred.tage.tageLongestMatchProvider::19        10441                       # TAGE provider for longest match
system.cpu.branchPred.tage.tageLongestMatchProvider::20         4159                       # TAGE provider for longest match
system.cpu.branchPred.tage.tageLongestMatchProvider::21            0                       # TAGE provider for longest match
system.cpu.branchPred.tage.tageLongestMatchProvider::22         1158                       # TAGE provider for longest match
system.cpu.branchPred.tage.tageLongestMatchProvider::23            0                       # TAGE provider for longest match
system.cpu.branchPred.tage.tageLongestMatchProvider::24          177                       # TAGE provider for longest match
system.cpu.branchPred.tage.tageLongestMatchProvider::25            0                       # TAGE provider for longest match
system.cpu.branchPred.tage.tageLongestMatchProvider::26           88                       # TAGE provider for longest match
system.cpu.branchPred.tage.tageLongestMatchProvider::27            0                       # TAGE provider for longest match
system.cpu.branchPred.tage.tageLongestMatchProvider::28         2422                       # TAGE provider for longest match
system.cpu.branchPred.tage.tageLongestMatchProvider::29            0                       # TAGE provider for longest match
system.cpu.branchPred.tage.tageLongestMatchProvider::30        24381                       # TAGE provider for longest match
system.cpu.branchPred.tage.tageLongestMatchProviderCorrect        67787                       # Number of times TAGE Longest Match is the provider and the prediction is correct
system.cpu.branchPred.tage.tageLongestMatchProviderWouldHaveHit          112                       # Number of times TAGE Alt Match is the provider, the prediction is wrong and Longest Match prediction was correct
system.cpu.branchPred.tage.tageLongestMatchProviderWrong         6016                       # Number of times TAGE Longest Match is the provider and the prediction is wrong
system.cpu.branchPred.usedRAS                     251                       # Number of times the RAS was used to get a target.
system.cpu.branchPred.wormholepredictor.whPredictorCorrect         2173                       # Number of time the WH predictor is the provider and the prediction is correct
system.cpu.branchPred.wormholepredictor.whPredictorWrong          187                       # Number of time the WH predictor is the provider and the prediction is wrong
system.cpu.branchPredindirectMispredicted           71                       # Number of mispredicted indirect branches.
system.cpu.cc_regfile_reads                  17375587                       # number of cc regfile reads
system.cpu.cc_regfile_writes                   315903                       # number of cc regfile writes
system.cpu.commit.amos                              0                       # Number of atomic instructions committed
system.cpu.commit.branchMispredicts             10412                       # The number of times a branch was mispredicted
system.cpu.commit.branches                     104289                       # Number of branches committed
system.cpu.commit.bw_lim_events                 41528                       # number cycles where commit BW limit reached
system.cpu.commit.commitNonSpecStalls              37                       # The number of times commit has been forced to stall to communicate backwards
system.cpu.commit.commitSquashedInsts          719132                       # The number of squashed insts skipped by commit
system.cpu.commit.committedInsts              4274925                       # Number of instructions committed
system.cpu.commit.committedOps                4276047                       # Number of ops (including micro ops) committed
system.cpu.commit.committed_per_cycle::samples      5018155                       # Number of insts commited each cycle
system.cpu.commit.committed_per_cycle::mean     0.852115                       # Number of insts commited each cycle
system.cpu.commit.committed_per_cycle::stdev     0.897048                       # Number of insts commited each cycle
system.cpu.commit.committed_per_cycle::underflows            0      0.00%      0.00% # Number of insts commited each cycle
system.cpu.commit.committed_per_cycle::0      1253345     24.98%     24.98% # Number of insts commited each cycle
system.cpu.commit.committed_per_cycle::1      3659754     72.93%     97.91% # Number of insts commited each cycle
system.cpu.commit.committed_per_cycle::2        11649      0.23%     98.14% # Number of insts commited each cycle
system.cpu.commit.committed_per_cycle::3          418      0.01%     98.15% # Number of insts commited each cycle
system.cpu.commit.committed_per_cycle::4          303      0.01%     98.15% # Number of insts commited each cycle
system.cpu.commit.committed_per_cycle::5        49845      0.99%     99.15% # Number of insts commited each cycle
system.cpu.commit.committed_per_cycle::6          111      0.00%     99.15% # Number of insts commited each cycle
system.cpu.commit.committed_per_cycle::7         1202      0.02%     99.17% # Number of insts commited each cycle
system.cpu.commit.committed_per_cycle::8        41528      0.83%    100.00% # Number of insts commited each cycle
system.cpu.commit.committed_per_cycle::overflows            0      0.00%    100.00% # Number of insts commited each cycle
system.cpu.commit.committed_per_cycle::min_value            0                       # Number of insts commited each cycle
system.cpu.commit.committed_per_cycle::max_value            8                       # Number of insts commited each cycle
system.cpu.commit.committed_per_cycle::total      5018155                       # Number of insts commited each cycle
system.cpu.commit.fp_insts                          0                       # Number of committed floating point instructions.
system.cpu.commit.function_calls                  123                       # Number of function calls committed.
system.cpu.commit.int_insts                   4172071                       # Number of committed integer instructions.
system.cpu.commit.loads                       1374349                       # Number of loads committed
system.cpu.commit.membars                          14                       # Number of memory barriers committed
system.cpu.commit.op_class_0::No_OpClass            0      0.00%      0.00% # Class of committed instruction
system.cpu.commit.op_class_0::IntAlu          1680267     39.29%     39.29% # Class of committed instruction
system.cpu.commit.op_class_0::IntMult           50003      1.17%     40.46% # Class of committed instruction
system.cpu.commit.op_class_0::IntDiv                0      0.00%     40.46% # Class of committed instruction
system.cpu.commit.op_class_0::FloatAdd              0      0.00%     40.46% # Class of committed instruction
system.cpu.commit.op_class_0::FloatCmp              0      0.00%     40.46% # Class of committed instruction
system.cpu.commit.op_class_0::FloatCvt              0      0.00%     40.46% # Class of committed instruction
system.cpu.commit.op_class_0::FloatMult             0      0.00%     40.46% # Class of committed instruction
system.cpu.commit.op_class_0::FloatMultAcc            0      0.00%     40.46% # Class of committed instruction
system.cpu.commit.op_class_0::FloatDiv              0      0.00%     40.46% # Class of committed instruction
system.cpu.commit.op_class_0::FloatMisc             0      0.00%     40.46% # Class of committed instruction
system.cpu.commit.op_class_0::FloatSqrt             0      0.00%     40.46% # Class of committed instruction
system.cpu.commit.op_class_0::SimdAdd               0      0.00%     40.46% # Class of committed instruction
system.cpu.commit.op_class_0::SimdAddAcc            0      0.00%     40.46% # Class of committed instruction
system.cpu.commit.op_class_0::SimdAlu               0      0.00%     40.46% # Class of committed instruction
system.cpu.commit.op_class_0::SimdCmp               0      0.00%     40.46% # Class of committed instruction
system.cpu.commit.op_class_0::SimdCvt               0      0.00%     40.46% # Class of committed instruction
system.cpu.commit.op_class_0::SimdMisc              0      0.00%     40.46% # Class of committed instruction
system.cpu.commit.op_class_0::SimdMult              0      0.00%     40.46% # Class of committed instruction
system.cpu.commit.op_class_0::SimdMultAcc            0      0.00%     40.46% # Class of committed instruction
system.cpu.commit.op_class_0::SimdShift             0      0.00%     40.46% # Class of committed instruction
system.cpu.commit.op_class_0::SimdShiftAcc            0      0.00%     40.46% # Class of committed instruction
system.cpu.commit.op_class_0::SimdDiv               0      0.00%     40.46% # Class of committed instruction
system.cpu.commit.op_class_0::SimdSqrt              0      0.00%     40.46% # Class of committed instruction
system.cpu.commit.op_class_0::SimdFloatAdd            0      0.00%     40.46% # Class of committed instruction
system.cpu.commit.op_class_0::SimdFloatAlu            0      0.00%     40.46% # Class of committed instruction
system.cpu.commit.op_class_0::SimdFloatCmp            0      0.00%     40.46% # Class of committed instruction
system.cpu.commit.op_class_0::SimdFloatCvt            0      0.00%     40.46% # Class of committed instruction
system.cpu.commit.op_class_0::SimdFloatDiv            0      0.00%     40.46% # Class of committed instruction
system.cpu.commit.op_class_0::SimdFloatMisc            0      0.00%     40.46% # Class of committed instruction
system.cpu.commit.op_class_0::SimdFloatMult            0      0.00%     40.46% # Class of committed instruction
system.cpu.commit.op_class_0::SimdFloatMultAcc            0      0.00%     40.46% # Class of committed instruction
system.cpu.commit.op_class_0::SimdFloatSqrt            0      0.00%     40.46% # Class of committed instruction
system.cpu.commit.op_class_0::SimdReduceAdd            0      0.00%     40.46% # Class of committed instruction
system.cpu.commit.op_class_0::SimdReduceAlu            0      0.00%     40.46% # Class of committed instruction
system.cpu.commit.op_class_0::SimdReduceCmp            0      0.00%     40.46% # Class of committed instruction
system.cpu.commit.op_class_0::SimdFloatReduceAdd            0      0.00%     40.46% # Class of committed instruction
system.cpu.commit.op_class_0::SimdFloatReduceCmp            0      0.00%     40.46% # Class of committed instruction
system.cpu.commit.op_class_0::SimdAes               0      0.00%     40.46% # Class of committed instruction
system.cpu.commit.op_class_0::SimdAesMix            0      0.00%     40.46% # Class of committed instruction
system.cpu.commit.op_class_0::SimdSha1Hash            0      0.00%     40.46% # Class of committed instruction
system.cpu.commit.op_class_0::SimdSha1Hash2            0      0.00%     40.46% # Class of committed instruction
system.cpu.commit.op_class_0::SimdSha256Hash            0      0.00%     40.46% # Class of committed instruction
system.cpu.commit.op_class_0::SimdSha256Hash2            0      0.00%     40.46% # Class of committed instruction
system.cpu.commit.op_class_0::SimdShaSigma2            0      0.00%     40.46% # Class of committed instruction
system.cpu.commit.op_class_0::SimdShaSigma3            0      0.00%     40.46% # Class of committed instruction
system.cpu.commit.op_class_0::SimdPredAlu            0      0.00%     40.46% # Class of committed instruction
system.cpu.commit.op_class_0::MemRead         1374349     32.14%     72.60% # Class of committed instruction
system.cpu.commit.op_class_0::MemWrite        1171428     27.40%    100.00% # Class of committed instruction
system.cpu.commit.op_class_0::FloatMemRead            0      0.00%    100.00% # Class of committed instruction
system.cpu.commit.op_class_0::FloatMemWrite            0      0.00%    100.00% # Class of committed instruction
system.cpu.commit.op_class_0::IprAccess             0      0.00%    100.00% # Class of committed instruction
system.cpu.commit.op_class_0::InstPrefetch            0      0.00%    100.00% # Class of committed instruction
system.cpu.commit.op_class_0::total           4276047                       # Class of committed instruction
system.cpu.commit.refs                        2545777                       # Number of memory references committed
system.cpu.commit.swp_count                         0                       # Number of s/w prefetches committed
system.cpu.commit.vec_insts                         0                       # Number of committed Vector instructions.
system.cpu.committedInsts                     4274925                       # Number of Instructions Simulated
system.cpu.committedOps                       4276047                       # Number of Ops (including micro ops) Simulated
system.cpu.cpi                               1.201102                       # CPI: Cycles Per Instruction
system.cpu.cpi_total                         1.201102                       # CPI: Total CPI of All Threads
system.cpu.decode.BlockedCycles               4234472                       # Number of cycles decode is blocked
system.cpu.decode.BranchMispred                   162                       # Number of times decode detected a branch misprediction
system.cpu.decode.BranchResolved                92000                       # Number of times decode resolved a branch
system.cpu.decode.DecodedInsts                5104600                       # Number of instructions handled by decode
system.cpu.decode.IdleCycles                   210823                       # Number of cycles decode is idle
system.cpu.decode.RunCycles                    123188                       # Number of cycles decode is running
system.cpu.decode.SquashCycles                  11104                       # Number of cycles decode is squashing
system.cpu.decode.SquashedInsts                   624                       # Number of squashed instructions handled by decode
system.cpu.decode.UnblockCycles                533109                       # Number of cycles decode is unblocking
system.cpu.dtb.accesses                             0                       # DTB accesses
system.cpu.dtb.align_faults                         0                       # Number of TLB faults due to alignment restrictions
system.cpu.dtb.domain_faults                        0                       # Number of TLB faults due to domain restrictions
system.cpu.dtb.flush_entries                        0                       # Number of entries that have been flushed from TLB
system.cpu.dtb.flush_tlb                            0                       # Number of times complete TLB was flushed
system.cpu.dtb.flush_tlb_asid                       0                       # Number of times TLB was flushed by ASID
system.cpu.dtb.flush_tlb_mva                        0                       # Number of times TLB was flushed by MVA
system.cpu.dtb.flush_tlb_mva_asid                   0                       # Number of times TLB was flushed by MVA & ASID
system.cpu.dtb.hits                                 0                       # DTB hits
system.cpu.dtb.inst_accesses                        0                       # ITB inst accesses
system.cpu.dtb.inst_hits                            0                       # ITB inst hits
system.cpu.dtb.inst_misses                          0                       # ITB inst misses
system.cpu.dtb.misses                               0                       # DTB misses
system.cpu.dtb.perms_faults                         0                       # Number of TLB faults due to permissions restrictions
system.cpu.dtb.prefetch_faults                      0                       # Number of TLB faults due to prefetch
system.cpu.dtb.read_accesses                        0                       # DTB read accesses
system.cpu.dtb.read_hits                            0                       # DTB read hits
system.cpu.dtb.read_misses                          0                       # DTB read misses
system.cpu.dtb.stage2_mmu.stage2_tlb.accesses            0                       # DTB accesses
system.cpu.dtb.stage2_mmu.stage2_tlb.align_faults            0                       # Number of TLB faults due to alignment restrictions
system.cpu.dtb.stage2_mmu.stage2_tlb.domain_faults            0                       # Number of TLB faults due to domain restrictions
system.cpu.dtb.stage2_mmu.stage2_tlb.flush_entries            0                       # Number of entries that have been flushed from TLB
system.cpu.dtb.stage2_mmu.stage2_tlb.flush_tlb            0                       # Number of times complete TLB was flushed
system.cpu.dtb.stage2_mmu.stage2_tlb.flush_tlb_asid            0                       # Number of times TLB was flushed by ASID
system.cpu.dtb.stage2_mmu.stage2_tlb.flush_tlb_mva            0                       # Number of times TLB was flushed by MVA
system.cpu.dtb.stage2_mmu.stage2_tlb.flush_tlb_mva_asid            0                       # Number of times TLB was flushed by MVA & ASID
system.cpu.dtb.stage2_mmu.stage2_tlb.hits            0                       # DTB hits
system.cpu.dtb.stage2_mmu.stage2_tlb.inst_accesses            0                       # ITB inst accesses
system.cpu.dtb.stage2_mmu.stage2_tlb.inst_hits            0                       # ITB inst hits
system.cpu.dtb.stage2_mmu.stage2_tlb.inst_misses            0                       # ITB inst misses
system.cpu.dtb.stage2_mmu.stage2_tlb.misses            0                       # DTB misses
system.cpu.dtb.stage2_mmu.stage2_tlb.perms_faults            0                       # Number of TLB faults due to permissions restrictions
system.cpu.dtb.stage2_mmu.stage2_tlb.prefetch_faults            0                       # Number of TLB faults due to prefetch
system.cpu.dtb.stage2_mmu.stage2_tlb.read_accesses            0                       # DTB read accesses
system.cpu.dtb.stage2_mmu.stage2_tlb.read_hits            0                       # DTB read hits
system.cpu.dtb.stage2_mmu.stage2_tlb.read_misses            0                       # DTB read misses
system.cpu.dtb.stage2_mmu.stage2_tlb.walker.walkRequestOrigin_Requested::Data            0                       # Table walker requests started/completed, data/inst
system.cpu.dtb.stage2_mmu.stage2_tlb.walker.walkRequestOrigin_Requested::Inst            0                       # Table walker requests started/completed, data/inst
system.cpu.dtb.stage2_mmu.stage2_tlb.walker.walkRequestOrigin_Requested::total            0                       # Table walker requests started/completed, data/inst
system.cpu.dtb.stage2_mmu.stage2_tlb.walker.walkRequestOrigin_Completed::Data            0                       # Table walker requests started/completed, data/inst
system.cpu.dtb.stage2_mmu.stage2_tlb.walker.walkRequestOrigin_Completed::Inst            0                       # Table walker requests started/completed, data/inst
system.cpu.dtb.stage2_mmu.stage2_tlb.walker.walkRequestOrigin_Completed::total            0                       # Table walker requests started/completed, data/inst
system.cpu.dtb.stage2_mmu.stage2_tlb.walker.walkRequestOrigin::total            0                       # Table walker requests started/completed, data/inst
system.cpu.dtb.stage2_mmu.stage2_tlb.walker.walks            0                       # Table walker walks requested
system.cpu.dtb.stage2_mmu.stage2_tlb.write_accesses            0                       # DTB write accesses
system.cpu.dtb.stage2_mmu.stage2_tlb.write_hits            0                       # DTB write hits
system.cpu.dtb.stage2_mmu.stage2_tlb.write_misses            0                       # DTB write misses
system.cpu.dtb.walker.walkRequestOrigin_Requested::Data            0                       # Table walker requests started/completed, data/inst
system.cpu.dtb.walker.walkRequestOrigin_Requested::Inst            0                       # Table walker requests started/completed, data/inst
system.cpu.dtb.walker.walkRequestOrigin_Requested::total            0                       # Table walker requests started/completed, data/inst
system.cpu.dtb.walker.walkRequestOrigin_Completed::Data            0                       # Table walker requests started/completed, data/inst
system.cpu.dtb.walker.walkRequestOrigin_Completed::Inst            0                       # Table walker requests started/completed, data/inst
system.cpu.dtb.walker.walkRequestOrigin_Completed::total            0                       # Table walker requests started/completed, data/inst
system.cpu.dtb.walker.walkRequestOrigin::total            0                       # Table walker requests started/completed, data/inst
system.cpu.dtb.walker.walks                         0                       # Table walker walks requested
system.cpu.dtb.write_accesses                       0                       # DTB write accesses
system.cpu.dtb.write_hits                           0                       # DTB write hits
system.cpu.dtb.write_misses                         0                       # DTB write misses
system.cpu.fetch.Branches                      133715                       # Number of branches that fetch encountered
system.cpu.fetch.CacheLines                    462638                       # Number of cache lines fetched
system.cpu.fetch.Cycles                       4622227                       # Number of cycles fetch has run and was not squashing or blocked
system.cpu.fetch.IcacheSquashes                   681                       # Number of outstanding Icache misses that were squashed
system.cpu.fetch.IcacheWaitRetryStallCycles           11                       # Number of stall cycles due to full MSHR
system.cpu.fetch.Insts                        5497916                       # Number of instructions fetch has processed
system.cpu.fetch.MiscStallCycles                    5                       # Number of cycles fetch has spent waiting on interrupts, or bad addresses, or out of MSHRs
system.cpu.fetch.PendingTrapStallCycles            16                       # Number of stall cycles due to pending traps
system.cpu.fetch.SquashCycles                   22532                       # Number of cycles fetch has spent squashing
system.cpu.fetch.branchRate                  0.026042                       # Number of branch fetches per cycle
system.cpu.fetch.icacheStallCycles             479171                       # Number of cycles fetch is stalled on an Icache miss
system.cpu.fetch.predictedBranches             104408                       # Number of branches that fetch has predicted taken
system.cpu.fetch.rate                        1.070754                       # Number of inst fetches per cycle
system.cpu.fetch.rateDist::samples            5112696                       # Number of instructions fetched each cycle (Total)
system.cpu.fetch.rateDist::mean              1.075811                       # Number of instructions fetched each cycle (Total)
system.cpu.fetch.rateDist::stdev             2.440064                       # Number of instructions fetched each cycle (Total)
system.cpu.fetch.rateDist::underflows               0      0.00%      0.00% # Number of instructions fetched each cycle (Total)
system.cpu.fetch.rateDist::0                  4068973     79.59%     79.59% # Number of instructions fetched each cycle (Total)
system.cpu.fetch.rateDist::1                   112520      2.20%     81.79% # Number of instructions fetched each cycle (Total)
system.cpu.fetch.rateDist::2                    95154      1.86%     83.65% # Number of instructions fetched each cycle (Total)
system.cpu.fetch.rateDist::3                   167324      3.27%     86.92% # Number of instructions fetched each cycle (Total)
system.cpu.fetch.rateDist::4                    75612      1.48%     88.40% # Number of instructions fetched each cycle (Total)
system.cpu.fetch.rateDist::5                    58198      1.14%     89.54% # Number of instructions fetched each cycle (Total)
system.cpu.fetch.rateDist::6                    59216      1.16%     90.70% # Number of instructions fetched each cycle (Total)
system.cpu.fetch.rateDist::7                    58832      1.15%     91.85% # Number of instructions fetched each cycle (Total)
system.cpu.fetch.rateDist::8                   416867      8.15%    100.00% # Number of instructions fetched each cycle (Total)
system.cpu.fetch.rateDist::overflows                0      0.00%    100.00% # Number of instructions fetched each cycle (Total)
system.cpu.fetch.rateDist::min_value                0                       # Number of instructions fetched each cycle (Total)
system.cpu.fetch.rateDist::max_value                8                       # Number of instructions fetched each cycle (Total)
system.cpu.fetch.rateDist::total              5112696                       # Number of instructions fetched each cycle (Total)
system.cpu.idleCycles                           21924                       # Total number of cycles that the CPU has spent unscheduled due to idling
system.cpu.iew.branchMispredicts                10837                       # Number of branch mispredicts detected at execute
system.cpu.iew.exec_branches                   107716                       # Number of branches executed
system.cpu.iew.exec_nop                             0                       # number of nop insts executed
system.cpu.iew.exec_rate                     0.852887                       # Inst execution rate
system.cpu.iew.exec_refs                      2607944                       # number of memory reference insts executed
system.cpu.iew.exec_stores                    1194098                       # Number of stores executed
system.cpu.iew.exec_swp                             0                       # number of swp insts executed
system.cpu.iew.iewBlockCycles                   85305                       # Number of cycles IEW is blocking
system.cpu.iew.iewDispLoadInsts               1616187                       # Number of dispatched load instructions
system.cpu.iew.iewDispNonSpecInsts                 31                       # Number of dispatched non-speculative instructions
system.cpu.iew.iewDispSquashedInsts               305                       # Number of squashed instructions skipped by dispatch
system.cpu.iew.iewDispStoreInsts              1399295                       # Number of dispatched store instructions
system.cpu.iew.iewDispatchedInsts             4995157                       # Number of instructions dispatched to IQ
system.cpu.iew.iewExecLoadInsts               1413846                       # Number of load instructions executed
system.cpu.iew.iewExecSquashedInsts             11367                       # Number of squashed instructions skipped in execute
system.cpu.iew.iewExecutedInsts               4379250                       # Number of executed instructions
system.cpu.iew.iewIQFullEvents                     38                       # Number of times the IQ has become full, causing a stall
system.cpu.iew.iewIdleCycles                        0                       # Number of cycles IEW is idle
system.cpu.iew.iewLSQFullEvents                    76                       # Number of times the LSQ has become full, causing a stall
system.cpu.iew.iewSquashCycles                  11104                       # Number of cycles IEW is squashing
system.cpu.iew.iewUnblockCycles                   117                       # Number of cycles IEW is unblocking
system.cpu.iew.lsq.thread0.blockedLoads             0                       # Number of blocked loads due to partial load-store forwarding
system.cpu.iew.lsq.thread0.cacheBlocked            10                       # Number of times an access to memory failed due to the cache being blocked
system.cpu.iew.lsq.thread0.forwLoads          1193353                       # Number of loads that had data forwarded from stores
system.cpu.iew.lsq.thread0.ignoredResponses           62                       # Number of memory responses ignored because the instruction is squashed
system.cpu.iew.lsq.thread0.invAddrLoads             0                       # Number of loads ignored due to an invalid address
system.cpu.iew.lsq.thread0.invAddrSwpfs             0                       # Number of software prefetches ignored due to an invalid address
system.cpu.iew.lsq.thread0.memOrderViolation          870                       # Number of memory ordering violations
system.cpu.iew.lsq.thread0.rescheduledLoads          103                       # Number of loads that were rescheduled
system.cpu.iew.lsq.thread0.squashedLoads       241838                       # Number of loads squashed
system.cpu.iew.lsq.thread0.squashedStores       227867                       # Number of stores squashed
system.cpu.iew.memOrderViolationEvents            870                       # Number of memory order violations
system.cpu.iew.predictedNotTakenIncorrect         7471                       # Number of branches that were predicted not taken incorrectly
system.cpu.iew.predictedTakenIncorrect           3366                       # Number of branches that were predicted taken incorrectly
system.cpu.iew.wb_consumers                   3430772                       # num instructions consuming a value
system.cpu.iew.wb_count                       4376916                       # cumulative count of insts written-back
system.cpu.iew.wb_fanout                     0.895156                       # average fanout of values written-back
system.cpu.iew.wb_producers                   3071075                       # num instructions producing a value
system.cpu.iew.wb_rate                       0.852432                       # insts written-back per cycle
system.cpu.iew.wb_sent                        4378100                       # cumulative count of insts sent to commit
system.cpu.int_regfile_reads                  5668258                       # number of integer regfile reads
system.cpu.int_regfile_writes                 3022221                       # number of integer regfile writes
system.cpu.ipc                               0.832569                       # IPC: Instructions Per Cycle
system.cpu.ipc_total                         0.832569                       # IPC: Total IPC of All Threads
system.cpu.iq.FU_type_0::No_OpClass                 2      0.00%      0.00% # Type of FU issued
system.cpu.iq.FU_type_0::IntAlu               1720974     39.20%     39.20% # Type of FU issued
system.cpu.iq.FU_type_0::IntMult                50603      1.15%     40.35% # Type of FU issued
system.cpu.iq.FU_type_0::IntDiv                     0      0.00%     40.35% # Type of FU issued
system.cpu.iq.FU_type_0::FloatAdd                   0      0.00%     40.35% # Type of FU issued
system.cpu.iq.FU_type_0::FloatCmp                   0      0.00%     40.35% # Type of FU issued
system.cpu.iq.FU_type_0::FloatCvt                   0      0.00%     40.35% # Type of FU issued
system.cpu.iq.FU_type_0::FloatMult                  0      0.00%     40.35% # Type of FU issued
system.cpu.iq.FU_type_0::FloatMultAcc               0      0.00%     40.35% # Type of FU issued
system.cpu.iq.FU_type_0::FloatDiv                   0      0.00%     40.35% # Type of FU issued
system.cpu.iq.FU_type_0::FloatMisc                  0      0.00%     40.35% # Type of FU issued
system.cpu.iq.FU_type_0::FloatSqrt                  0      0.00%     40.35% # Type of FU issued
system.cpu.iq.FU_type_0::SimdAdd                    0      0.00%     40.35% # Type of FU issued
system.cpu.iq.FU_type_0::SimdAddAcc                 0      0.00%     40.35% # Type of FU issued
system.cpu.iq.FU_type_0::SimdAlu                    0      0.00%     40.35% # Type of FU issued
system.cpu.iq.FU_type_0::SimdCmp                    0      0.00%     40.35% # Type of FU issued
system.cpu.iq.FU_type_0::SimdCvt                    0      0.00%     40.35% # Type of FU issued
system.cpu.iq.FU_type_0::SimdMisc                   0      0.00%     40.35% # Type of FU issued
system.cpu.iq.FU_type_0::SimdMult                   0      0.00%     40.35% # Type of FU issued
system.cpu.iq.FU_type_0::SimdMultAcc                0      0.00%     40.35% # Type of FU issued
system.cpu.iq.FU_type_0::SimdShift                  0      0.00%     40.35% # Type of FU issued
system.cpu.iq.FU_type_0::SimdShiftAcc               0      0.00%     40.35% # Type of FU issued
system.cpu.iq.FU_type_0::SimdDiv                    0      0.00%     40.35% # Type of FU issued
system.cpu.iq.FU_type_0::SimdSqrt                   0      0.00%     40.35% # Type of FU issued
system.cpu.iq.FU_type_0::SimdFloatAdd               0      0.00%     40.35% # Type of FU issued
system.cpu.iq.FU_type_0::SimdFloatAlu               0      0.00%     40.35% # Type of FU issued
system.cpu.iq.FU_type_0::SimdFloatCmp               0      0.00%     40.35% # Type of FU issued
system.cpu.iq.FU_type_0::SimdFloatCvt               0      0.00%     40.35% # Type of FU issued
system.cpu.iq.FU_type_0::SimdFloatDiv               0      0.00%     40.35% # Type of FU issued
system.cpu.iq.FU_type_0::SimdFloatMisc              0      0.00%     40.35% # Type of FU issued
system.cpu.iq.FU_type_0::SimdFloatMult              0      0.00%     40.35% # Type of FU issued
system.cpu.iq.FU_type_0::SimdFloatMultAcc            0      0.00%     40.35% # Type of FU issued
system.cpu.iq.FU_type_0::SimdFloatSqrt              0      0.00%     40.35% # Type of FU issued
system.cpu.iq.FU_type_0::SimdReduceAdd              0      0.00%     40.35% # Type of FU issued
system.cpu.iq.FU_type_0::SimdReduceAlu              0      0.00%     40.35% # Type of FU issued
system.cpu.iq.FU_type_0::SimdReduceCmp              0      0.00%     40.35% # Type of FU issued
system.cpu.iq.FU_type_0::SimdFloatReduceAdd            0      0.00%     40.35% # Type of FU issued
system.cpu.iq.FU_type_0::SimdFloatReduceCmp            0      0.00%     40.35% # Type of FU issued
system.cpu.iq.FU_type_0::SimdAes                    0      0.00%     40.35% # Type of FU issued
system.cpu.iq.FU_type_0::SimdAesMix                 0      0.00%     40.35% # Type of FU issued
system.cpu.iq.FU_type_0::SimdSha1Hash               0      0.00%     40.35% # Type of FU issued
system.cpu.iq.FU_type_0::SimdSha1Hash2              0      0.00%     40.35% # Type of FU issued
system.cpu.iq.FU_type_0::SimdSha256Hash             0      0.00%     40.35% # Type of FU issued
system.cpu.iq.FU_type_0::SimdSha256Hash2            0      0.00%     40.35% # Type of FU issued
system.cpu.iq.FU_type_0::SimdShaSigma2              0      0.00%     40.35% # Type of FU issued
system.cpu.iq.FU_type_0::SimdShaSigma3              0      0.00%     40.35% # Type of FU issued
system.cpu.iq.FU_type_0::SimdPredAlu                0      0.00%     40.35% # Type of FU issued
system.cpu.iq.FU_type_0::MemRead              1415152     32.23%     72.58% # Type of FU issued
system.cpu.iq.FU_type_0::MemWrite             1203886     27.42%    100.00% # Type of FU issued
system.cpu.iq.FU_type_0::FloatMemRead               0      0.00%    100.00% # Type of FU issued
system.cpu.iq.FU_type_0::FloatMemWrite              0      0.00%    100.00% # Type of FU issued
system.cpu.iq.FU_type_0::IprAccess                  0      0.00%    100.00% # Type of FU issued
system.cpu.iq.FU_type_0::InstPrefetch               0      0.00%    100.00% # Type of FU issued
system.cpu.iq.FU_type_0::total                4390617                       # Type of FU issued
system.cpu.iq.fp_alu_accesses                       0                       # Number of floating point alu accesses
system.cpu.iq.fp_inst_queue_reads                   0                       # Number of floating instruction queue reads
system.cpu.iq.fp_inst_queue_wakeup_accesses            0                       # Number of floating instruction queue wakeup accesses
system.cpu.iq.fp_inst_queue_writes                  0                       # Number of floating instruction queue writes
system.cpu.iq.fu_busy_cnt                         421                       # FU busy when requested
system.cpu.iq.fu_busy_rate                   0.000096                       # FU busy rate (busy events/executed inst)
system.cpu.iq.fu_full::No_OpClass                   0      0.00%      0.00% # attempts to use FU when none available
system.cpu.iq.fu_full::IntAlu                       9      2.14%      2.14% # attempts to use FU when none available
system.cpu.iq.fu_full::IntMult                      0      0.00%      2.14% # attempts to use FU when none available
system.cpu.iq.fu_full::IntDiv                       0      0.00%      2.14% # attempts to use FU when none available
system.cpu.iq.fu_full::FloatAdd                     0      0.00%      2.14% # attempts to use FU when none available
system.cpu.iq.fu_full::FloatCmp                     0      0.00%      2.14% # attempts to use FU when none available
system.cpu.iq.fu_full::FloatCvt                     0      0.00%      2.14% # attempts to use FU when none available
system.cpu.iq.fu_full::FloatMult                    0      0.00%      2.14% # attempts to use FU when none available
system.cpu.iq.fu_full::FloatMultAcc                 0      0.00%      2.14% # attempts to use FU when none available
system.cpu.iq.fu_full::FloatDiv                     0      0.00%      2.14% # attempts to use FU when none available
system.cpu.iq.fu_full::FloatMisc                    0      0.00%      2.14% # attempts to use FU when none available
system.cpu.iq.fu_full::FloatSqrt                    0      0.00%      2.14% # attempts to use FU when none available
system.cpu.iq.fu_full::SimdAdd                      0      0.00%      2.14% # attempts to use FU when none available
system.cpu.iq.fu_full::SimdAddAcc                   0      0.00%      2.14% # attempts to use FU when none available
system.cpu.iq.fu_full::SimdAlu                      0      0.00%      2.14% # attempts to use FU when none available
system.cpu.iq.fu_full::SimdCmp                      0      0.00%      2.14% # attempts to use FU when none available
system.cpu.iq.fu_full::SimdCvt                      0      0.00%      2.14% # attempts to use FU when none available
system.cpu.iq.fu_full::SimdMisc                     0      0.00%      2.14% # attempts to use FU when none available
system.cpu.iq.fu_full::SimdMult                     0      0.00%      2.14% # attempts to use FU when none available
system.cpu.iq.fu_full::SimdMultAcc                  0      0.00%      2.14% # attempts to use FU when none available
system.cpu.iq.fu_full::SimdShift                    0      0.00%      2.14% # attempts to use FU when none available
system.cpu.iq.fu_full::SimdShiftAcc                 0      0.00%      2.14% # attempts to use FU when none available
system.cpu.iq.fu_full::SimdDiv                      0      0.00%      2.14% # attempts to use FU when none available
system.cpu.iq.fu_full::SimdSqrt                     0      0.00%      2.14% # attempts to use FU when none available
system.cpu.iq.fu_full::SimdFloatAdd                 0      0.00%      2.14% # attempts to use FU when none available
system.cpu.iq.fu_full::SimdFloatAlu                 0      0.00%      2.14% # attempts to use FU when none available
system.cpu.iq.fu_full::SimdFloatCmp                 0      0.00%      2.14% # attempts to use FU when none available
system.cpu.iq.fu_full::SimdFloatCvt                 0      0.00%      2.14% # attempts to use FU when none available
system.cpu.iq.fu_full::SimdFloatDiv                 0      0.00%      2.14% # attempts to use FU when none available
system.cpu.iq.fu_full::SimdFloatMisc                0      0.00%      2.14% # attempts to use FU when none available
system.cpu.iq.fu_full::SimdFloatMult                0      0.00%      2.14% # attempts to use FU when none available
system.cpu.iq.fu_full::SimdFloatMultAcc             0      0.00%      2.14% # attempts to use FU when none available
system.cpu.iq.fu_full::SimdFloatSqrt                0      0.00%      2.14% # attempts to use FU when none available
system.cpu.iq.fu_full::SimdReduceAdd                0      0.00%      2.14% # attempts to use FU when none available
system.cpu.iq.fu_full::SimdReduceAlu                0      0.00%      2.14% # attempts to use FU when none available
system.cpu.iq.fu_full::SimdReduceCmp                0      0.00%      2.14% # attempts to use FU when none available
system.cpu.iq.fu_full::SimdFloatReduceAdd            0      0.00%      2.14% # attempts to use FU when none available
system.cpu.iq.fu_full::SimdFloatReduceCmp            0      0.00%      2.14% # attempts to use FU when none available
system.cpu.iq.fu_full::SimdAes                      0      0.00%      2.14% # attempts to use FU when none available
system.cpu.iq.fu_full::SimdAesMix                   0      0.00%      2.14% # attempts to use FU when none available
system.cpu.iq.fu_full::SimdSha1Hash                 0      0.00%      2.14% # attempts to use FU when none available
system.cpu.iq.fu_full::SimdSha1Hash2                0      0.00%      2.14% # attempts to use FU when none available
system.cpu.iq.fu_full::SimdSha256Hash               0      0.00%      2.14% # attempts to use FU when none available
system.cpu.iq.fu_full::SimdSha256Hash2              0      0.00%      2.14% # attempts to use FU when none available
system.cpu.iq.fu_full::SimdShaSigma2                0      0.00%      2.14% # attempts to use FU when none available
system.cpu.iq.fu_full::SimdShaSigma3                0      0.00%      2.14% # attempts to use FU when none available
system.cpu.iq.fu_full::SimdPredAlu                  0      0.00%      2.14% # attempts to use FU when none available
system.cpu.iq.fu_full::MemRead                    328     77.91%     80.05% # attempts to use FU when none available
system.cpu.iq.fu_full::MemWrite                    84     19.95%    100.00% # attempts to use FU when none available
system.cpu.iq.fu_full::FloatMemRead                 0      0.00%    100.00% # attempts to use FU when none available
system.cpu.iq.fu_full::FloatMemWrite                0      0.00%    100.00% # attempts to use FU when none available
system.cpu.iq.fu_full::IprAccess                    0      0.00%    100.00% # attempts to use FU when none available
system.cpu.iq.fu_full::InstPrefetch                 0      0.00%    100.00% # attempts to use FU when none available
system.cpu.iq.int_alu_accesses                4391036                       # Number of integer alu accesses
system.cpu.iq.int_inst_queue_reads           13894423                       # Number of integer instruction queue reads
system.cpu.iq.int_inst_queue_wakeup_accesses      4376916                       # Number of integer instruction queue wakeup accesses
system.cpu.iq.int_inst_queue_writes           5715038                       # Number of integer instruction queue writes
system.cpu.iq.iqInstsAdded                    4995112                       # Number of instructions added to the IQ (excludes non-spec)
system.cpu.iq.iqInstsIssued                   4390617                       # Number of instructions issued
system.cpu.iq.iqNonSpecInstsAdded                  45                       # Number of non-speculative instructions added to the IQ
system.cpu.iq.iqSquashedInstsExamined          719109                       # Number of squashed instructions iterated over during squash; mainly for profiling
system.cpu.iq.iqSquashedInstsIssued                72                       # Number of squashed instructions issued
system.cpu.iq.iqSquashedNonSpecRemoved              8                       # Number of squashed non-spec instructions that were removed
system.cpu.iq.iqSquashedOperandsExamined      3091317                       # Number of squashed operands that are examined and possibly removed from graph
system.cpu.iq.issued_per_cycle::samples       5112696                       # Number of insts issued each cycle
system.cpu.iq.issued_per_cycle::mean         0.858767                       # Number of insts issued each cycle
system.cpu.iq.issued_per_cycle::stdev        0.650323                       # Number of insts issued each cycle
system.cpu.iq.issued_per_cycle::underflows            0      0.00%      0.00% # Number of insts issued each cycle
system.cpu.iq.issued_per_cycle::0             1262438     24.69%     24.69% # Number of insts issued each cycle
system.cpu.iq.issued_per_cycle::1             3475653     67.98%     92.67% # Number of insts issued each cycle
system.cpu.iq.issued_per_cycle::2              267527      5.23%     97.91% # Number of insts issued each cycle
system.cpu.iq.issued_per_cycle::3               51712      1.01%     98.92% # Number of insts issued each cycle
system.cpu.iq.issued_per_cycle::4               53852      1.05%     99.97% # Number of insts issued each cycle
system.cpu.iq.issued_per_cycle::5                 655      0.01%     99.98% # Number of insts issued each cycle
system.cpu.iq.issued_per_cycle::6                 171      0.00%     99.99% # Number of insts issued each cycle
system.cpu.iq.issued_per_cycle::7                 439      0.01%    100.00% # Number of insts issued each cycle
system.cpu.iq.issued_per_cycle::8                 249      0.00%    100.00% # Number of insts issued each cycle
system.cpu.iq.issued_per_cycle::overflows            0      0.00%    100.00% # Number of insts issued each cycle
system.cpu.iq.issued_per_cycle::min_value            0                       # Number of insts issued each cycle
system.cpu.iq.issued_per_cycle::max_value            8                       # Number of insts issued each cycle
system.cpu.iq.issued_per_cycle::total         5112696                       # Number of insts issued each cycle
system.cpu.iq.rate                           0.855101                       # Inst issue rate
system.cpu.iq.vec_alu_accesses                      0                       # Number of vector alu accesses
system.cpu.iq.vec_inst_queue_reads                  0                       # Number of vector instruction queue reads
system.cpu.iq.vec_inst_queue_wakeup_accesses            0                       # Number of vector instruction queue wakeup accesses
system.cpu.iq.vec_inst_queue_writes                 0                       # Number of vector instruction queue writes
system.cpu.itb.accesses                             0                       # DTB accesses
system.cpu.itb.align_faults                         0                       # Number of TLB faults due to alignment restrictions
system.cpu.itb.domain_faults                        0                       # Number of TLB faults due to domain restrictions
system.cpu.itb.flush_entries                        0                       # Number of entries that have been flushed from TLB
system.cpu.itb.flush_tlb                            0                       # Number of times complete TLB was flushed
system.cpu.itb.flush_tlb_asid                       0                       # Number of times TLB was flushed by ASID
system.cpu.itb.flush_tlb_mva                        0                       # Number of times TLB was flushed by MVA
system.cpu.itb.flush_tlb_mva_asid                   0                       # Number of times TLB was flushed by MVA & ASID
system.cpu.itb.hits                                 0                       # DTB hits
system.cpu.itb.inst_accesses                        0                       # ITB inst accesses
system.cpu.itb.inst_hits                            0                       # ITB inst hits
system.cpu.itb.inst_misses                          0                       # ITB inst misses
system.cpu.itb.misses                               0                       # DTB misses
system.cpu.itb.perms_faults                         0                       # Number of TLB faults due to permissions restrictions
system.cpu.itb.prefetch_faults                      0                       # Number of TLB faults due to prefetch
system.cpu.itb.read_accesses                        0                       # DTB read accesses
system.cpu.itb.read_hits                            0                       # DTB read hits
system.cpu.itb.read_misses                          0                       # DTB read misses
system.cpu.itb.stage2_mmu.stage2_tlb.accesses            0                       # DTB accesses
system.cpu.itb.stage2_mmu.stage2_tlb.align_faults            0                       # Number of TLB faults due to alignment restrictions
system.cpu.itb.stage2_mmu.stage2_tlb.domain_faults            0                       # Number of TLB faults due to domain restrictions
system.cpu.itb.stage2_mmu.stage2_tlb.flush_entries            0                       # Number of entries that have been flushed from TLB
system.cpu.itb.stage2_mmu.stage2_tlb.flush_tlb            0                       # Number of times complete TLB was flushed
system.cpu.itb.stage2_mmu.stage2_tlb.flush_tlb_asid            0                       # Number of times TLB was flushed by ASID
system.cpu.itb.stage2_mmu.stage2_tlb.flush_tlb_mva            0                       # Number of times TLB was flushed by MVA
system.cpu.itb.stage2_mmu.stage2_tlb.flush_tlb_mva_asid            0                       # Number of times TLB was flushed by MVA & ASID
system.cpu.itb.stage2_mmu.stage2_tlb.hits            0                       # DTB hits
system.cpu.itb.stage2_mmu.stage2_tlb.inst_accesses            0                       # ITB inst accesses
system.cpu.itb.stage2_mmu.stage2_tlb.inst_hits            0                       # ITB inst hits
system.cpu.itb.stage2_mmu.stage2_tlb.inst_misses            0                       # ITB inst misses
system.cpu.itb.stage2_mmu.stage2_tlb.misses            0                       # DTB misses
system.cpu.itb.stage2_mmu.stage2_tlb.perms_faults            0                       # Number of TLB faults due to permissions restrictions
system.cpu.itb.stage2_mmu.stage2_tlb.prefetch_faults            0                       # Number of TLB faults due to prefetch
system.cpu.itb.stage2_mmu.stage2_tlb.read_accesses            0                       # DTB read accesses
system.cpu.itb.stage2_mmu.stage2_tlb.read_hits            0                       # DTB read hits
system.cpu.itb.stage2_mmu.stage2_tlb.read_misses            0                       # DTB read misses
system.cpu.itb.stage2_mmu.stage2_tlb.walker.walkRequestOrigin_Requested::Data            0                       # Table walker requests started/completed, data/inst
system.cpu.itb.stage2_mmu.stage2_tlb.walker.walkRequestOrigin_Requested::Inst            0                       # Table walker requests started/completed, data/inst
system.cpu.itb.stage2_mmu.stage2_tlb.walker.walkRequestOrigin_Requested::total            0                       # Table walker requests started/completed, data/inst
system.cpu.itb.stage2_mmu.stage2_tlb.walker.walkRequestOrigin_Completed::Data            0                       # Table walker requests started/completed, data/inst
system.cpu.itb.stage2_mmu.stage2_tlb.walker.walkRequestOrigin_Completed::Inst            0                       # Table walker requests started/completed, data/inst
system.cpu.itb.stage2_mmu.stage2_tlb.walker.walkRequestOrigin_Completed::total            0                       # Table walker requests started/completed, data/inst
system.cpu.itb.stage2_mmu.stage2_tlb.walker.walkRequestOrigin::total            0                       # Table walker requests started/completed, data/inst
system.cpu.itb.stage2_mmu.stage2_tlb.walker.walks            0                       # Table walker walks requested
system.cpu.itb.stage2_mmu.stage2_tlb.write_accesses            0                       # DTB write accesses
system.cpu.itb.stage2_mmu.stage2_tlb.write_hits            0                       # DTB write hits
system.cpu.itb.stage2_mmu.stage2_tlb.write_misses            0                       # DTB write misses
system.cpu.itb.walker.walkRequestOrigin_Requested::Data            0                       # Table walker requests started/completed, data/inst
system.cpu.itb.walker.walkRequestOrigin_Requested::Inst            0                       # Table walker requests started/completed, data/inst
system.cpu.itb.walker.walkRequestOrigin_Requested::total            0                       # Table walker requests started/completed, data/inst
system.cpu.itb.walker.walkRequestOrigin_Completed::Data            0                       # Table walker requests started/completed, data/inst
system.cpu.itb.walker.walkRequestOrigin_Completed::Inst            0                       # Table walker requests started/completed, data/inst
system.cpu.itb.walker.walkRequestOrigin_Completed::total            0                       # Table walker requests started/completed, data/inst
system.cpu.itb.walker.walkRequestOrigin::total            0                       # Table walker requests started/completed, data/inst
system.cpu.itb.walker.walks                         0                       # Table walker walks requested
system.cpu.itb.write_accesses                       0                       # DTB write accesses
system.cpu.itb.write_hits                           0                       # DTB write hits
system.cpu.itb.write_misses                         0                       # DTB write misses
system.cpu.memDep0.conflictingLoads           1546862                       # Number of conflicting loads.
system.cpu.memDep0.conflictingStores          1179998                       # Number of conflicting stores.
system.cpu.memDep0.insertedLoads              1616187                       # Number of loads inserted to the mem dependence unit.
system.cpu.memDep0.insertedStores             1399295                       # Number of stores inserted to the mem dependence unit.
system.cpu.misc_regfile_reads                 5677449                       # number of misc regfile reads
system.cpu.misc_regfile_writes                     57                       # number of misc regfile writes
system.cpu.numCycles                          5134620                       # number of cpu cycles simulated
system.cpu.numWorkItemsCompleted                    0                       # number of work items this cpu completed
system.cpu.numWorkItemsStarted                      0                       # number of work items this cpu started
system.cpu.rename.BlockCycles                 2149260                       # Number of cycles rename is blocking
system.cpu.rename.CommittedMaps               3257288                       # Number of HB maps that are committed
system.cpu.rename.IQFullEvents                2087506                       # Number of times rename has blocked due to IQ full
system.cpu.rename.IdleCycles                   279837                       # Number of cycles rename is idle
system.cpu.rename.LQFullEvents                   5576                       # Number of times rename has blocked due to LQ full
system.cpu.rename.ROBFullEvents                     6                       # Number of times rename has blocked due to ROB full
system.cpu.rename.RenameLookups              24733372                       # Number of register rename lookups that rename has made
system.cpu.rename.RenamedInsts                5033845                       # Number of instructions processed by rename
system.cpu.rename.RenamedOperands             3785857                       # Number of destination operands rename has renamed
system.cpu.rename.RunCycles                    575547                       # Number of cycles rename is running
system.cpu.rename.SQFullEvents                   1923                       # Number of times rename has blocked due to SQ full
system.cpu.rename.SquashCycles                  11104                       # Number of cycles rename is squashing
system.cpu.rename.UnblockCycles               2095650                       # Number of cycles rename is unblocking
system.cpu.rename.UndoneMaps                   528569                       # Number of HB maps that are undone due to squashing
system.cpu.rename.int_rename_lookups          6590296                       # Number of integer rename lookups
system.cpu.rename.serializeStallCycles           1298                       # count of cycles rename stalled for serializing inst
system.cpu.rename.serializingInsts                 33                       # count of serializing insts renamed
system.cpu.rename.skidInsts                   3265599                       # count of insts added to the skid buffer
system.cpu.rename.tempSerializingInsts             32                       # count of temporary serializing insts renamed
system.cpu.rename.vec_rename_lookups               16                       # Number of vector rename lookups
system.cpu.rob.rob_reads                      9971676                       # The number of ROB reads
system.cpu.rob.rob_writes                    10084946                       # The number of ROB writes
system.cpu.timesIdled                             214                       # Number of times that the entire CPU went into an idle state and unscheduled itself
system.cpu.vec_regfile_reads                       16                       # number of vector regfile reads
system.cpu.workload.numSyscalls                     9                       # Number of system calls
system.membus.snoop_filter.hit_multi_requests            0                       # Number of requests hitting in the snoop filter with multiple (>1) holders of the requested data.
system.membus.snoop_filter.hit_multi_snoops            0                       # Number of snoops hitting in the snoop filter with multiple (>1) holders of the requested data.
system.membus.snoop_filter.hit_single_requests            0                       # Number of requests hitting in the snoop filter with a single holder of the requested data.
system.membus.snoop_filter.hit_single_snoops            0                       # Number of snoops hitting in the snoop filter with a single holder of the requested data.
system.membus.snoop_filter.tot_requests           459                       # Total number of requests made to the snoop filter.
system.membus.snoop_filter.tot_snoops               0                       # Total number of snoops made to the snoop filter.
system.tol2bus.snoop_filter.hit_multi_requests           11                       # Number of requests hitting in the snoop filter with multiple (>1) holders of the requested data.
system.tol2bus.snoop_filter.hit_multi_snoops            0                       # Number of snoops hitting in the snoop filter with multiple (>1) holders of the requested data.
system.tol2bus.snoop_filter.hit_single_requests          165                       # Number of requests hitting in the snoop filter with a single holder of the requested data.
system.tol2bus.snoop_filter.hit_single_snoops            0                       # Number of snoops hitting in the snoop filter with a single holder of the requested data.
system.tol2bus.snoop_filter.tot_requests          662                       # Total number of requests made to the snoop filter.
system.tol2bus.snoop_filter.tot_snoops              0                       # Total number of snoops made to the snoop filter.
system.membus.trans_dist::ReadResp                403                       # Transaction distribution
system.membus.trans_dist::ReadExReq                56                       # Transaction distribution
system.membus.trans_dist::ReadExResp               56                       # Transaction distribution
system.membus.trans_dist::ReadSharedReq           403                       # Transaction distribution
system.membus.pkt_count_system.l2.mem_side::system.mem_ctrls.port          918                       # Packet count per connected master and slave (bytes)
system.membus.pkt_count::total                    918                       # Packet count per connected master and slave (bytes)
system.membus.pkt_size_system.l2.mem_side::system.mem_ctrls.port        29376                       # Cumulative packet size per connected master and slave (bytes)
system.membus.pkt_size::total                   29376                       # Cumulative packet size per connected master and slave (bytes)
system.membus.snoops                                0                       # Total snoops (count)
system.membus.snoopTraffic                          0                       # Total snoop traffic (bytes)
system.membus.snoop_fanout::samples               459                       # Request fanout histogram
system.membus.snoop_fanout::mean                    0                       # Request fanout histogram
system.membus.snoop_fanout::stdev                   0                       # Request fanout histogram
system.membus.snoop_fanout::underflows              0      0.00%      0.00% # Request fanout histogram
system.membus.snoop_fanout::0                     459    100.00%    100.00% # Request fanout histogram
system.membus.snoop_fanout::1                       0      0.00%    100.00% # Request fanout histogram
system.membus.snoop_fanout::overflows               0      0.00%    100.00% # Request fanout histogram
system.membus.snoop_fanout::min_value               0                       # Request fanout histogram
system.membus.snoop_fanout::max_value               0                       # Request fanout histogram
system.membus.snoop_fanout::total                 459                       # Request fanout histogram
system.membus.reqLayer0.occupancy              565000                       # Layer occupancy (ticks)
system.membus.reqLayer0.utilization               0.0                       # Layer utilization (%)
system.membus.respLayer1.occupancy            2421500                       # Layer occupancy (ticks)
system.membus.respLayer1.utilization              0.1                       # Layer utilization (%)
system.membus.power_state.pwrStateResidencyTicks::UNDEFINED   2567309500                       # Cumulative time (in ticks) in various power states
system.tol2bus.trans_dist::ReadResp               473                       # Transaction distribution
system.tol2bus.trans_dist::WritebackClean          132                       # Transaction distribution
system.tol2bus.trans_dist::ReadExReq               56                       # Transaction distribution
system.tol2bus.trans_dist::ReadExResp              56                       # Transaction distribution
system.tol2bus.trans_dist::ReadCleanReq           354                       # Transaction distribution
system.tol2bus.trans_dist::ReadSharedReq          120                       # Transaction distribution
system.tol2bus.pkt_count_system.cpu.icache.mem_side::system.l2.cpu_side          839                       # Packet count per connected master and slave (bytes)
system.tol2bus.pkt_count_system.cpu.dcache.mem_side::system.l2.cpu_side          352                       # Packet count per connected master and slave (bytes)
system.tol2bus.pkt_count::total                  1191                       # Packet count per connected master and slave (bytes)
system.tol2bus.pkt_size_system.cpu.icache.mem_side::system.l2.cpu_side        31040                       # Cumulative packet size per connected master and slave (bytes)
system.tol2bus.pkt_size_system.cpu.dcache.mem_side::system.l2.cpu_side        11264                       # Cumulative packet size per connected master and slave (bytes)
system.tol2bus.pkt_size::total                  42304                       # Cumulative packet size per connected master and slave (bytes)
system.tol2bus.snoops                               0                       # Total snoops (count)
system.tol2bus.snoopTraffic                         0                       # Total snoop traffic (bytes)
system.tol2bus.snoop_fanout::samples              530                       # Request fanout histogram
system.tol2bus.snoop_fanout::mean            0.083019                       # Request fanout histogram
system.tol2bus.snoop_fanout::stdev           0.276171                       # Request fanout histogram
system.tol2bus.snoop_fanout::underflows             0      0.00%      0.00% # Request fanout histogram
system.tol2bus.snoop_fanout::0                    486     91.70%     91.70% # Request fanout histogram
system.tol2bus.snoop_fanout::1                     44      8.30%    100.00% # Request fanout histogram
system.tol2bus.snoop_fanout::2                      0      0.00%    100.00% # Request fanout histogram
system.tol2bus.snoop_fanout::overflows              0      0.00%    100.00% # Request fanout histogram
system.tol2bus.snoop_fanout::min_value              0                       # Request fanout histogram
system.tol2bus.snoop_fanout::max_value              1                       # Request fanout histogram
system.tol2bus.snoop_fanout::total                530                       # Request fanout histogram
system.tol2bus.reqLayer0.occupancy             463000                       # Layer occupancy (ticks)
system.tol2bus.reqLayer0.utilization              0.0                       # Layer utilization (%)
system.tol2bus.respLayer1.occupancy            267992                       # Layer occupancy (ticks)
system.tol2bus.respLayer1.utilization             0.0                       # Layer utilization (%)
system.tol2bus.respLayer0.occupancy            529500                       # Layer occupancy (ticks)
system.tol2bus.respLayer0.utilization             0.0                       # Layer utilization (%)
system.tol2bus.power_state.pwrStateResidencyTicks::UNDEFINED   2567309500                       # Cumulative time (in ticks) in various power states
system.voltage_domain.voltage                       1                       # Voltage in Volts
system.clk_domain.clock                          1000                       # Clock period in ticks
system.l2.demand_hits::.cpu.inst                   45                       # number of demand (read+write) hits
system.l2.demand_hits::.cpu.data                   17                       # number of demand (read+write) hits
system.l2.demand_hits::total                       62                       # number of demand (read+write) hits
system.l2.overall_hits::.cpu.inst                  45                       # number of overall hits
system.l2.overall_hits::.cpu.data                  17                       # number of overall hits
system.l2.overall_hits::total                      62                       # number of overall hits
system.l2.demand_misses::.cpu.inst                309                       # number of demand (read+write) misses
system.l2.demand_misses::.cpu.data                159                       # number of demand (read+write) misses
system.l2.demand_misses::total                    468                       # number of demand (read+write) misses
system.l2.overall_misses::.cpu.inst               309                       # number of overall misses
system.l2.overall_misses::.cpu.data               159                       # number of overall misses
system.l2.overall_misses::total                   468                       # number of overall misses
system.l2.demand_miss_latency::.cpu.inst     23470500                       # number of demand (read+write) miss cycles
system.l2.demand_miss_latency::.cpu.data     13087500                       # number of demand (read+write) miss cycles
system.l2.demand_miss_latency::total         36558000                       # number of demand (read+write) miss cycles
system.l2.overall_miss_latency::.cpu.inst     23470500                       # number of overall miss cycles
system.l2.overall_miss_latency::.cpu.data     13087500                       # number of overall miss cycles
system.l2.overall_miss_latency::total        36558000                       # number of overall miss cycles
system.l2.demand_accesses::.cpu.inst              354                       # number of demand (read+write) accesses
system.l2.demand_accesses::.cpu.data              176                       # number of demand (read+write) accesses
system.l2.demand_accesses::total                  530                       # number of demand (read+write) accesses
system.l2.overall_accesses::.cpu.inst             354                       # number of overall (read+write) accesses
system.l2.overall_accesses::.cpu.data             176                       # number of overall (read+write) accesses
system.l2.overall_accesses::total                 530                       # number of overall (read+write) accesses
system.l2.demand_miss_rate::.cpu.inst        0.872881                       # miss rate for demand accesses
system.l2.demand_miss_rate::.cpu.data        0.903409                       # miss rate for demand accesses
system.l2.demand_miss_rate::total            0.883019                       # miss rate for demand accesses
system.l2.overall_miss_rate::.cpu.inst       0.872881                       # miss rate for overall accesses
system.l2.overall_miss_rate::.cpu.data       0.903409                       # miss rate for overall accesses
system.l2.overall_miss_rate::total           0.883019                       # miss rate for overall accesses
[...]
system.cpu.icache.ReadReq_accesses::total       462638                       # number of ReadReq accesses(hits+misses)
system.cpu.icache.ReadReq_miss_rate::.cpu.inst     0.001033                       # miss rate for ReadReq accesses
system.cpu.icache.ReadReq_miss_rate::total     0.001033                       # miss rate for ReadReq accesses
system.cpu.icache.ReadReq_avg_miss_latency::.cpu.inst 65399.581590                       # average ReadReq miss latency
system.cpu.icache.ReadReq_avg_miss_latency::total 65399.581590                       # average ReadReq miss latency
system.cpu.icache.ReadReq_mshr_hits::.cpu.inst          124                       # number of ReadReq MSHR hits
system.cpu.icache.ReadReq_mshr_hits::total          124                       # number of ReadReq MSHR hits
system.cpu.icache.ReadReq_mshr_misses::.cpu.inst          354                       # number of ReadReq MSHR misses
system.cpu.icache.ReadReq_mshr_misses::total          354                       # number of ReadReq MSHR misses
system.cpu.icache.ReadReq_mshr_miss_latency::.cpu.inst     24502000                       # number of ReadReq MSHR miss cycles
system.cpu.icache.ReadReq_mshr_miss_latency::total     24502000                       # number of ReadReq MSHR miss cycles
system.cpu.icache.ReadReq_mshr_miss_rate::.cpu.inst     0.000765                       # mshr miss rate for ReadReq accesses
system.cpu.icache.ReadReq_mshr_miss_rate::total     0.000765                       # mshr miss rate for ReadReq accesses
system.cpu.icache.ReadReq_avg_mshr_miss_latency::.cpu.inst 69214.689266                       # average ReadReq mshr miss latency
system.cpu.icache.ReadReq_avg_mshr_miss_latency::total 69214.689266                       # average ReadReq mshr miss latency
system.cpu.icache.power_state.pwrStateResidencyTicks::UNDEFINED   2567309500                       # Cumulative time (in ticks) in various power states
system.cpu.icache.tags.tagsinuse           208.429144                       # Cycle average of tags in use
system.cpu.icache.tags.total_refs              462513                       # Total number of references to valid blocks.
system.cpu.icache.tags.sampled_refs               353                       # Sample count of references to valid blocks.
system.cpu.icache.tags.avg_refs           1310.235127                       # Average number of references to valid blocks.
system.cpu.icache.tags.warmup_cycle             87500                       # Cycle when the warmup percentage was hit.
system.cpu.icache.tags.occ_blocks::.cpu.inst   208.429144                       # Average occupied blocks per requestor
system.cpu.icache.tags.occ_percent::.cpu.inst     0.814176                       # Average percentage of cache occupancy
system.cpu.icache.tags.occ_percent::total     0.814176                       # Average percentage of cache occupancy
system.cpu.icache.tags.occ_task_id_blocks::1024          221                       # Occupied blocks per task id
system.cpu.icache.tags.age_task_id_blocks_1024::0           43                       # Occupied blocks per task id
system.cpu.icache.tags.age_task_id_blocks_1024::3          178                       # Occupied blocks per task id
system.cpu.icache.tags.occ_task_id_percent::1024     0.863281                       # Percentage of cache occupancy per task id
system.cpu.icache.tags.tag_accesses            925629                       # Number of tag accesses
system.cpu.icache.tags.data_accesses           925629                       # Number of data accesses
system.cpu.icache.tags.power_state.pwrStateResidencyTicks::UNDEFINED   2567309500                       # Cumulative time (in ticks) in various power states
system.cpu.dtb.walker.power_state.pwrStateResidencyTicks::UNDEFINED   2567309500                       # Cumulative time (in ticks) in various power states
system.cpu.dtb.stage2_mmu.stage2_tlb.walker.power_state.pwrStateResidencyTicks::UNDEFINED   2567309500                       # Cumulative time (in ticks) in various power states
system.cpu.itb.walker.power_state.pwrStateResidencyTicks::UNDEFINED   2567309500                       # Cumulative time (in ticks) in various power states
system.cpu.itb.stage2_mmu.stage2_tlb.walker.power_state.pwrStateResidencyTicks::UNDEFINED   2567309500                       # Cumulative time (in ticks) in various power states
system.cpu.dcache.demand_hits::.cpu.data      1390898                       # number of demand (read+write) hits
system.cpu.dcache.demand_hits::total          1390898                       # number of demand (read+write) hits
system.cpu.dcache.overall_hits::.cpu.data      1390898                       # number of overall hits
system.cpu.dcache.overall_hits::total         1390898                       # number of overall hits
system.cpu.dcache.demand_misses::.cpu.data          711                       # number of demand (read+write) misses
system.cpu.dcache.demand_misses::total            711                       # number of demand (read+write) misses
system.cpu.dcache.overall_misses::.cpu.data          711                       # number of overall misses
system.cpu.dcache.overall_misses::total           711                       # number of overall misses
system.cpu.dcache.demand_miss_latency::.cpu.data     49054498                       # number of demand (read+write) miss cycles
system.cpu.dcache.demand_miss_latency::total     49054498                       # number of demand (read+write) miss cycles
system.cpu.dcache.overall_miss_latency::.cpu.data     49054498                       # number of overall miss cycles
system.cpu.dcache.overall_miss_latency::total     49054498                       # number of overall miss cycles
system.cpu.dcache.demand_accesses::.cpu.data      1391609                       # number of demand (read+write) accesses
system.cpu.dcache.demand_accesses::total      1391609                       # number of demand (read+write) accesses
system.cpu.dcache.overall_accesses::.cpu.data      1391609                       # number of overall (read+write) accesses
system.cpu.dcache.overall_accesses::total      1391609                       # number of overall (read+write) accesses
system.cpu.dcache.demand_miss_rate::.cpu.data     0.000511                       # miss rate for demand accesses
system.cpu.dcache.demand_miss_rate::total     0.000511                       # miss rate for demand accesses
system.cpu.dcache.overall_miss_rate::.cpu.data     0.000511                       # miss rate for overall accesses
system.cpu.dcache.overall_miss_rate::total     0.000511                       # miss rate for overall accesses
system.cpu.dcache.demand_avg_miss_latency::.cpu.data 68993.668073                       # average overall miss latency
system.cpu.dcache.demand_avg_miss_latency::total 68993.668073                       # average overall miss latency
system.cpu.dcache.overall_avg_miss_latency::.cpu.data 68993.668073                       # average overall miss latency
system.cpu.dcache.overall_avg_miss_latency::total 68993.668073                       # average overall miss latency
system.cpu.dcache.blocked_cycles::no_mshrs          534                       # number of cycles access was blocked
system.cpu.dcache.blocked_cycles::no_targets            0                       # number of cycles access was blocked
system.cpu.dcache.blocked::no_mshrs                11                       # number of cycles access was blocked
system.cpu.dcache.blocked::no_targets               0                       # number of cycles access was blocked
system.cpu.dcache.avg_blocked_cycles::no_mshrs    48.545455                       # average number of cycles each access was blocked
system.cpu.dcache.avg_blocked_cycles::no_targets          nan                       # average number of cycles each access was blocked
system.cpu.dcache.demand_mshr_hits::.cpu.data          535                       # number of demand (read+write) MSHR hits
system.cpu.dcache.demand_mshr_hits::total          535                       # number of demand (read+write) MSHR hits
system.cpu.dcache.overall_mshr_hits::.cpu.data          535                       # number of overall MSHR hits
system.cpu.dcache.overall_mshr_hits::total          535                       # number of overall MSHR hits
system.cpu.dcache.demand_mshr_misses::.cpu.data          176                       # number of demand (read+write) MSHR misses
system.cpu.dcache.demand_mshr_misses::total          176                       # number of demand (read+write) MSHR misses
system.cpu.dcache.overall_mshr_misses::.cpu.data          176                       # number of overall MSHR misses
system.cpu.dcache.overall_mshr_misses::total          176                       # number of overall MSHR misses
system.cpu.dcache.demand_mshr_miss_latency::.cpu.data     13555998                       # number of demand (read+write) MSHR miss cycles
system.cpu.dcache.demand_mshr_miss_latency::total     13555998                       # number of demand (read+write) MSHR miss cycles
system.cpu.dcache.overall_mshr_miss_latency::.cpu.data     13555998                       # number of overall MSHR miss cycles
system.cpu.dcache.overall_mshr_miss_latency::total     13555998                       # number of overall MSHR miss cycles
system.cpu.dcache.demand_mshr_miss_rate::.cpu.data     0.000126                       # mshr miss rate for demand accesses
system.cpu.dcache.demand_mshr_miss_rate::total     0.000126                       # mshr miss rate for demand accesses
system.cpu.dcache.overall_mshr_miss_rate::.cpu.data     0.000126                       # mshr miss rate for overall accesses
system.cpu.dcache.overall_mshr_miss_rate::total     0.000126                       # mshr miss rate for overall accesses
system.cpu.dcache.demand_avg_mshr_miss_latency::.cpu.data 77022.715909                       # average overall mshr miss latency
system.cpu.dcache.demand_avg_mshr_miss_latency::total 77022.715909                       # average overall mshr miss latency
system.cpu.dcache.overall_avg_mshr_miss_latency::.cpu.data 77022.715909                       # average overall mshr miss latency
system.cpu.dcache.overall_avg_mshr_miss_latency::total 77022.715909                       # average overall mshr miss latency
system.cpu.dcache.replacements                      0                       # number of replacements
system.cpu.dcache.ReadReq_hits::.cpu.data       220002                       # number of ReadReq hits
system.cpu.dcache.ReadReq_hits::total          220002                       # number of ReadReq hits
system.cpu.dcache.ReadReq_misses::.cpu.data          240                       # number of ReadReq misses
system.cpu.dcache.ReadReq_misses::total           240                       # number of ReadReq misses
system.cpu.dcache.ReadReq_miss_latency::.cpu.data     14573000                       # number of ReadReq miss cycles
system.cpu.dcache.ReadReq_miss_latency::total     14573000                       # number of ReadReq miss cycles
system.cpu.dcache.ReadReq_accesses::.cpu.data       220242                       # number of ReadReq accesses(hits+misses)
system.cpu.dcache.ReadReq_accesses::total       220242                       # number of ReadReq accesses(hits+misses)
system.cpu.dcache.ReadReq_miss_rate::.cpu.data     0.001090                       # miss rate for ReadReq accesses
system.cpu.dcache.ReadReq_miss_rate::total     0.001090                       # miss rate for ReadReq accesses
system.cpu.dcache.ReadReq_avg_miss_latency::.cpu.data 60720.833333                       # average ReadReq miss latency
system.cpu.dcache.ReadReq_avg_miss_latency::total 60720.833333                       # average ReadReq miss latency
system.cpu.dcache.ReadReq_mshr_hits::.cpu.data          120                       # number of ReadReq MSHR hits
system.cpu.dcache.ReadReq_mshr_hits::total          120                       # number of ReadReq MSHR hits
system.cpu.dcache.ReadReq_mshr_misses::.cpu.data          120                       # number of ReadReq MSHR misses
system.cpu.dcache.ReadReq_mshr_misses::total          120                       # number of ReadReq MSHR misses
system.cpu.dcache.ReadReq_mshr_miss_latency::.cpu.data      8495500                       # number of ReadReq MSHR miss cycles
system.cpu.dcache.ReadReq_mshr_miss_latency::total      8495500                       # number of ReadReq MSHR miss cycles
system.cpu.dcache.ReadReq_mshr_miss_rate::.cpu.data     0.000545                       # mshr miss rate for ReadReq accesses
system.cpu.dcache.ReadReq_mshr_miss_rate::total     0.000545                       # mshr miss rate for ReadReq accesses
system.cpu.dcache.ReadReq_avg_mshr_miss_latency::.cpu.data 70795.833333                       # average ReadReq mshr miss latency
system.cpu.dcache.ReadReq_avg_mshr_miss_latency::total 70795.833333                       # average ReadReq mshr miss latency
system.cpu.dcache.WriteReq_hits::.cpu.data      1170896                       # number of WriteReq hits
system.cpu.dcache.WriteReq_hits::total        1170896                       # number of WriteReq hits
system.cpu.dcache.WriteReq_misses::.cpu.data          471                       # number of WriteReq misses
system.cpu.dcache.WriteReq_misses::total          471                       # number of WriteReq misses
system.cpu.dcache.WriteReq_miss_latency::.cpu.data     34481498                       # number of WriteReq miss cycles
system.cpu.dcache.WriteReq_miss_latency::total     34481498                       # number of WriteReq miss cycles
system.cpu.dcache.WriteReq_accesses::.cpu.data      1171367                       # number of WriteReq accesses(hits+misses)
system.cpu.dcache.WriteReq_accesses::total      1171367                       # number of WriteReq accesses(hits+misses)
system.cpu.dcache.WriteReq_miss_rate::.cpu.data     0.000402                       # miss rate for WriteReq accesses
system.cpu.dcache.WriteReq_miss_rate::total     0.000402                       # miss rate for WriteReq accesses
system.cpu.dcache.WriteReq_avg_miss_latency::.cpu.data 73209.125265                       # average WriteReq miss latency
system.cpu.dcache.WriteReq_avg_miss_latency::total 73209.125265                       # average WriteReq miss latency
system.cpu.dcache.WriteReq_mshr_hits::.cpu.data          415                       # number of WriteReq MSHR hits
system.cpu.dcache.WriteReq_mshr_hits::total          415                       # number of WriteReq MSHR hits
system.cpu.dcache.WriteReq_mshr_misses::.cpu.data           56                       # number of WriteReq MSHR misses
system.cpu.dcache.WriteReq_mshr_misses::total           56                       # number of WriteReq MSHR misses
system.cpu.dcache.WriteReq_mshr_miss_latency::.cpu.data      5060498                       # number of WriteReq MSHR miss cycles
system.cpu.dcache.WriteReq_mshr_miss_latency::total      5060498                       # number of WriteReq MSHR miss cycles
system.cpu.dcache.WriteReq_mshr_miss_rate::.cpu.data     0.000048                       # mshr miss rate for WriteReq accesses
system.cpu.dcache.WriteReq_mshr_miss_rate::total     0.000048                       # mshr miss rate for WriteReq accesses
system.cpu.dcache.WriteReq_avg_mshr_miss_latency::.cpu.data 90366.035714                       # average WriteReq mshr miss latency
system.cpu.dcache.WriteReq_avg_mshr_miss_latency::total 90366.035714                       # average WriteReq mshr miss latency
system.cpu.dcache.LoadLockedReq_hits::.cpu.data           13                       # number of LoadLockedReq hits
system.cpu.dcache.LoadLockedReq_hits::total           13                       # number of LoadLockedReq hits
system.cpu.dcache.LoadLockedReq_misses::.cpu.data            1                       # number of LoadLockedReq misses
system.cpu.dcache.LoadLockedReq_misses::total            1                       # number of LoadLockedReq misses
system.cpu.dcache.LoadLockedReq_miss_latency::.cpu.data        30500                       # number of LoadLockedReq miss cycles
system.cpu.dcache.LoadLockedReq_miss_latency::total        30500                       # number of LoadLockedReq miss cycles
system.cpu.dcache.LoadLockedReq_accesses::.cpu.data           14                       # number of LoadLockedReq accesses(hits+misses)
system.cpu.dcache.LoadLockedReq_accesses::total           14                       # number of LoadLockedReq accesses(hits+misses)
system.cpu.dcache.LoadLockedReq_miss_rate::.cpu.data     0.071429                       # miss rate for LoadLockedReq accesses
system.cpu.dcache.LoadLockedReq_miss_rate::total     0.071429                       # miss rate for LoadLockedReq accesses
system.cpu.dcache.LoadLockedReq_avg_miss_latency::.cpu.data        30500                       # average LoadLockedReq miss latency
system.cpu.dcache.LoadLockedReq_avg_miss_latency::total        30500                       # average LoadLockedReq miss latency
system.cpu.dcache.LoadLockedReq_mshr_hits::.cpu.data            1                       # number of LoadLockedReq MSHR hits
system.cpu.dcache.LoadLockedReq_mshr_hits::total            1                       # number of LoadLockedReq MSHR hits
system.cpu.dcache.StoreCondReq_hits::.cpu.data           14                       # number of StoreCondReq hits
system.cpu.dcache.StoreCondReq_hits::total           14                       # number of StoreCondReq hits
system.cpu.dcache.StoreCondReq_accesses::.cpu.data           14                       # number of StoreCondReq accesses(hits+misses)
system.cpu.dcache.StoreCondReq_accesses::total           14                       # number of StoreCondReq accesses(hits+misses)
system.cpu.dcache.power_state.pwrStateResidencyTicks::UNDEFINED   2567309500                       # Cumulative time (in ticks) in various power states
system.cpu.dcache.tags.tagsinuse           159.540887                       # Cycle average of tags in use
system.cpu.dcache.tags.total_refs             1391101                       # Total number of references to valid blocks.
system.cpu.dcache.tags.sampled_refs               176                       # Sample count of references to valid blocks.
system.cpu.dcache.tags.avg_refs           7903.982955                       # Average number of references to valid blocks.
system.cpu.dcache.tags.warmup_cycle            161000                       # Cycle when the warmup percentage was hit.
system.cpu.dcache.tags.occ_blocks::.cpu.data   159.540887                       # Average occupied blocks per requestor
system.cpu.dcache.tags.occ_percent::.cpu.data     0.155802                       # Average percentage of cache occupancy
system.cpu.dcache.tags.occ_percent::total     0.155802                       # Average percentage of cache occupancy
system.cpu.dcache.tags.occ_task_id_blocks::1024          176                       # Occupied blocks per task id
system.cpu.dcache.tags.age_task_id_blocks_1024::0           16                       # Occupied blocks per task id
system.cpu.dcache.tags.age_task_id_blocks_1024::3          160                       # Occupied blocks per task id
system.cpu.dcache.tags.occ_task_id_percent::1024     0.171875                       # Percentage of cache occupancy per task id
system.cpu.dcache.tags.tag_accesses           2783450                       # Number of tag accesses
system.cpu.dcache.tags.data_accesses          2783450                       # Number of data accesses
system.cpu.dcache.tags.power_state.pwrStateResidencyTicks::UNDEFINED   2567309500                       # Cumulative time (in ticks) in various power states
system.cpu.power_state.pwrStateResidencyTicks::ON   2567309500                       # Cumulative time (in ticks) in various power states

---------- End Simulation Statistics   ----------
