
---------- Begin Simulation Statistics ----------
final_tick                               1672263164000                       # Number of ticks from beginning of simulation (restored from checkpoints and never reset)
host_inst_rate                                 138713                       # Simulator instruction rate (inst/s)
host_mem_usage                                1037248                       # Number of bytes of host memory used
host_op_rate                                   268352                       # Simulator op (including micro ops) rate (op/s)
host_seconds                                 14778.73                       # Real time elapsed on the host
host_tick_rate                               27877808                       # Simulator tick rate (ticks/s)
sim_freq                                 1000000000000                       # Frequency of simulated ticks
sim_insts                                  2050000002                       # Number of instructions simulated
sim_ops                                    3965900571                       # Number of ops (including micro ops) simulated
sim_seconds                                  0.411999                       # Number of seconds simulated
sim_ticks                                411998709750                       # Number of ticks simulated
system.cpu.committedInsts                           0                       # Number of instructions committed
system.cpu.committedOps                             0                       # Number of ops (including micro ops) committed
system.cpu.dtb.rdAccesses                           0                       # TLB accesses on read requests
system.cpu.dtb.rdMisses                             0                       # TLB misses on read requests
system.cpu.dtb.wrAccesses                           0                       # TLB accesses on write requests
system.cpu.dtb.wrMisses                             0                       # TLB misses on write requests
system.cpu.idle_fraction                            0                       # Percentage of idle cycles
system.cpu.itb.rdAccesses                           0                       # TLB accesses on read requests
system.cpu.itb.rdMisses                             0                       # TLB misses on read requests
system.cpu.itb.wrAccesses                           0                       # TLB accesses on write requests
system.cpu.itb.wrMisses                             0                       # TLB misses on write requests
system.cpu.not_idle_fraction                        1                       # Percentage of non-idle cycles
system.cpu.numCycles                                0                       # number of cpu cycles simulated
system.cpu.numWorkItemsCompleted                    0                       # number of work items this cpu completed
system.cpu.numWorkItemsStarted                      0                       # number of work items this cpu started
system.cpu.num_busy_cycles                          0                       # Number of busy cycles
system.cpu.num_conditional_control_insts            0                       # number of instructions that are conditional controls
system.cpu.num_fp_alu_accesses                      0                       # Number of float alu accesses
system.cpu.num_fp_insts                             0                       # number of float instructions
system.cpu.num_fp_register_reads                    0                       # number of times the floating registers were read
system.cpu.num_fp_register_writes                   0                       # number of times the floating registers were written
system.cpu.num_func_calls                           0                       # number of times a function call or return occured
system.cpu.num_idle_cycles                          0                       # Number of idle cycles
system.cpu.num_int_alu_accesses                     0                       # Number of integer alu accesses
system.cpu.num_int_insts                            0                       # number of integer instructions
system.cpu.num_int_register_reads                   0                       # number of times the integer registers were read
system.cpu.num_int_register_writes                  0                       # number of times the integer registers were written
system.cpu.num_load_insts                           0                       # Number of load instructions
system.cpu.num_mem_refs                             0                       # number of memory refs
system.cpu.num_store_insts                          0                       # Number of store instructions
system.cpu.num_vec_alu_accesses                     0                       # Number of vector alu accesses
system.cpu.num_vec_insts                            0                       # number of vector instructions
system.cpu.num_vec_register_reads                   0                       # number of times the vector registers were read
system.cpu.num_vec_register_writes                  0                       # number of times the vector registers were written
system.cpu.op_class::No_OpClass                     0                       # Class of executed instruction
system.cpu.op_class::IntAlu                         0                       # Class of executed instruction
system.cpu.op_class::IntMult                        0                       # Class of executed instruction
system.cpu.op_class::IntDiv                         0                       # Class of executed instruction
system.cpu.op_class::FloatAdd                       0                       # Class of executed instruction
system.cpu.op_class::FloatCmp                       0                       # Class of executed instruction
system.cpu.op_class::FloatCvt                       0                       # Class of executed instruction
system.cpu.op_class::FloatMult                      0                       # Class of executed instruction
system.cpu.op_class::FloatMultAcc                   0                       # Class of executed instruction
system.cpu.op_class::FloatDiv                       0                       # Class of executed instruction
system.cpu.op_class::FloatMisc                      0                       # Class of executed instruction
system.cpu.op_class::FloatSqrt                      0                       # Class of executed instruction
system.cpu.op_class::SimdAdd                        0                       # Class of executed instruction
system.cpu.op_class::SimdAddAcc                     0                       # Class of executed instruction
system.cpu.op_class::SimdAlu                        0                       # Class of executed instruction
system.cpu.op_class::SimdCmp                        0                       # Class of executed instruction
system.cpu.op_class::SimdCvt                        0                       # Class of executed instruction
system.cpu.op_class::SimdMisc                       0                       # Class of executed instruction
system.cpu.op_class::SimdMult                       0                       # Class of executed instruction
system.cpu.op_class::SimdMultAcc                    0                       # Class of executed instruction
system.cpu.op_class::SimdShift                      0                       # Class of executed instruction
system.cpu.op_class::SimdShiftAcc                   0                       # Class of executed instruction
system.cpu.op_class::SimdDiv                        0                       # Class of executed instruction
system.cpu.op_class::SimdSqrt                       0                       # Class of executed instruction
system.cpu.op_class::SimdFloatAdd                   0                       # Class of executed instruction
system.cpu.op_class::SimdFloatAlu                   0                       # Class of executed instruction
system.cpu.op_class::SimdFloatCmp                   0                       # Class of executed instruction
system.cpu.op_class::SimdFloatCvt                   0                       # Class of executed instruction
system.cpu.op_class::SimdFloatDiv                   0                       # Class of executed instruction
system.cpu.op_class::SimdFloatMisc                  0                       # Class of executed instruction
system.cpu.op_class::SimdFloatMult                  0                       # Class of executed instruction
system.cpu.op_class::SimdFloatMultAcc               0                       # Class of executed instruction
system.cpu.op_class::SimdFloatSqrt                  0                       # Class of executed instruction
system.cpu.op_class::SimdReduceAdd                  0                       # Class of executed instruction
system.cpu.op_class::SimdReduceAlu                  0                       # Class of executed instruction
system.cpu.op_class::SimdReduceCmp                  0                       # Class of executed instruction
system.cpu.op_class::SimdFloatReduceAdd             0                       # Class of executed instruction
system.cpu.op_class::SimdFloatReduceCmp             0                       # Class of executed instruction
system.cpu.op_class::SimdAes                        0                       # Class of executed instruction
system.cpu.op_class::SimdAesMix                     0                       # Class of executed instruction
system.cpu.op_class::SimdSha1Hash                   0                       # Class of executed instruction
system.cpu.op_class::SimdSha1Hash2                  0                       # Class of executed instruction
system.cpu.op_class::SimdSha256Hash                 0                       # Class of executed instruction
system.cpu.op_class::SimdSha256Hash2                0                       # Class of executed instruction
system.cpu.op_class::SimdShaSigma2                  0                       # Class of executed instruction
system.cpu.op_class::SimdShaSigma3                  0                       # Class of executed instruction
system.cpu.op_class::SimdPredAlu                    0                       # Class of executed instruction
system.cpu.op_class::MemRead                        0                       # Class of executed instruction
system.cpu.op_class::MemWrite                       0                       # Class of executed instruction
system.cpu.op_class::FloatMemRead                   0                       # Class of executed instruction
system.cpu.op_class::FloatMemWrite                  0                       # Class of executed instruction
system.cpu.op_class::IprAccess                      0                       # Class of executed instruction
system.cpu.op_class::InstPrefetch                   0                       # Class of executed instruction
system.cpu.op_class::total                          0                       # Class of executed instruction
system.cpu.workload.numSyscalls                   505                       # Number of system calls
system.membus.snoop_filter.hit_multi_requests            0                       # Number of requests hitting in the snoop filter with multiple (>1) holders of the requested data.
system.membus.snoop_filter.hit_multi_snoops            0                       # Number of snoops hitting in the snoop filter with multiple (>1) holders of the requested data.
system.membus.snoop_filter.hit_single_requests      1069265                       # Number of requests hitting in the snoop filter with a single holder of the requested data.
system.membus.snoop_filter.hit_single_snoops            0                       # Number of snoops hitting in the snoop filter with a single holder of the requested data.
system.membus.snoop_filter.tot_requests       2138207                       # Total number of requests made to the snoop filter.
system.membus.snoop_filter.tot_snoops               0                       # Total number of snoops made to the snoop filter.
system.switch_cpus.committedInsts                   0                       # Number of instructions committed
system.switch_cpus.committedOps                     0                       # Number of ops (including micro ops) committed
system.switch_cpus.dtb.rdAccesses                   0                       # TLB accesses on read requests
system.switch_cpus.dtb.rdMisses                     0                       # TLB misses on read requests
system.switch_cpus.dtb.wrAccesses                   0                       # TLB accesses on write requests
system.switch_cpus.dtb.wrMisses                     0                       # TLB misses on write requests
system.switch_cpus.idle_fraction                    0                       # Percentage of idle cycles
system.switch_cpus.itb.rdAccesses                   0                       # TLB accesses on read requests
system.switch_cpus.itb.rdMisses                     0                       # TLB misses on read requests
system.switch_cpus.itb.wrAccesses                   0                       # TLB accesses on write requests
system.switch_cpus.itb.wrMisses                     0                       # TLB misses on write requests
system.switch_cpus.not_idle_fraction                1                       # Percentage of non-idle cycles
system.switch_cpus.numCycles                        0                       # number of cpu cycles simulated
system.switch_cpus.numWorkItemsCompleted            0                       # number of work items this cpu completed
system.switch_cpus.numWorkItemsStarted              0                       # number of work items this cpu started
system.switch_cpus.num_busy_cycles                  0                       # Number of busy cycles
system.switch_cpus.num_conditional_control_insts            0                       # number of instructions that are conditional controls
system.switch_cpus.num_fp_alu_accesses              0                       # Number of float alu accesses
system.switch_cpus.num_fp_insts                     0                       # number of float instructions
system.switch_cpus.num_fp_register_reads            0                       # number of times the floating registers were read
system.switch_cpus.num_fp_register_writes            0                       # number of times the floating registers were written
system.switch_cpus.num_func_calls                   0                       # number of times a function call or return occured
system.switch_cpus.num_idle_cycles                  0                       # Number of idle cycles
system.switch_cpus.num_int_alu_accesses             0                       # Number of integer alu accesses
system.switch_cpus.num_int_insts                    0                       # number of integer instructions
system.switch_cpus.num_int_register_reads            0                       # number of times the integer registers were read
system.switch_cpus.num_int_register_writes            0                       # number of times the integer registers were written
system.switch_cpus.num_load_insts                   0                       # Number of load instructions
system.switch_cpus.num_mem_refs                     0                       # number of memory refs
system.switch_cpus.num_store_insts                  0                       # Number of store instructions
system.switch_cpus.num_vec_alu_accesses             0                       # Number of vector alu accesses
system.switch_cpus.num_vec_insts                    0                       # number of vector instructions
system.switch_cpus.num_vec_register_reads            0                       # number of times the vector registers were read
system.switch_cpus.num_vec_register_writes            0                       # number of times the vector registers were written
system.switch_cpus.op_class::No_OpClass             0                       # Class of executed instruction
system.switch_cpus.op_class::IntAlu                 0                       # Class of executed instruction
system.switch_cpus.op_class::IntMult                0                       # Class of executed instruction
system.switch_cpus.op_class::IntDiv                 0                       # Class of executed instruction
system.switch_cpus.op_class::FloatAdd               0                       # Class of executed instruction
system.switch_cpus.op_class::FloatCmp               0                       # Class of executed instruction
system.switch_cpus.op_class::FloatCvt               0                       # Class of executed instruction
system.switch_cpus.op_class::FloatMult              0                       # Class of executed instruction
system.switch_cpus.op_class::FloatMultAcc            0                       # Class of executed instruction
system.switch_cpus.op_class::FloatDiv               0                       # Class of executed instruction
system.switch_cpus.op_class::FloatMisc              0                       # Class of executed instruction
system.switch_cpus.op_class::FloatSqrt              0                       # Class of executed instruction
system.switch_cpus.op_class::SimdAdd                0                       # Class of executed instruction
system.switch_cpus.op_class::SimdAddAcc             0                       # Class of executed instruction
system.switch_cpus.op_class::SimdAlu                0                       # Class of executed instruction
system.switch_cpus.op_class::SimdCmp                0                       # Class of executed instruction
system.switch_cpus.op_class::SimdCvt                0                       # Class of executed instruction
system.switch_cpus.op_class::SimdMisc               0                       # Class of executed instruction
system.switch_cpus.op_class::SimdMult               0                       # Class of executed instruction
system.switch_cpus.op_class::SimdMultAcc            0                       # Class of executed instruction
system.switch_cpus.op_class::SimdShift              0                       # Class of executed instruction
system.switch_cpus.op_class::SimdShiftAcc            0                       # Class of executed instruction
system.switch_cpus.op_class::SimdDiv                0                       # Class of executed instruction
system.switch_cpus.op_class::SimdSqrt               0                       # Class of executed instruction
system.switch_cpus.op_class::SimdFloatAdd            0                       # Class of executed instruction
system.switch_cpus.op_class::SimdFloatAlu            0                       # Class of executed instruction
system.switch_cpus.op_class::SimdFloatCmp            0                       # Class of executed instruction
system.switch_cpus.op_class::SimdFloatCvt            0                       # Class of executed instruction
system.switch_cpus.op_class::SimdFloatDiv            0                       # Class of executed instruction
system.switch_cpus.op_class::SimdFloatMisc            0                       # Class of executed instruction
system.switch_cpus.op_class::SimdFloatMult            0                       # Class of executed instruction
system.switch_cpus.op_class::SimdFloatMultAcc            0                       # Class of executed instruction
system.switch_cpus.op_class::SimdFloatSqrt            0                       # Class of executed instruction
system.switch_cpus.op_class::SimdReduceAdd            0                       # Class of executed instruction
system.switch_cpus.op_class::SimdReduceAlu            0                       # Class of executed instruction
system.switch_cpus.op_class::SimdReduceCmp            0                       # Class of executed instruction
system.switch_cpus.op_class::SimdFloatReduceAdd            0                       # Class of executed instruction
system.switch_cpus.op_class::SimdFloatReduceCmp            0                       # Class of executed instruction
system.switch_cpus.op_class::SimdAes                0                       # Class of executed instruction
system.switch_cpus.op_class::SimdAesMix             0                       # Class of executed instruction
system.switch_cpus.op_class::SimdSha1Hash            0                       # Class of executed instruction
system.switch_cpus.op_class::SimdSha1Hash2            0                       # Class of executed instruction
system.switch_cpus.op_class::SimdSha256Hash            0                       # Class of executed instruction
system.switch_cpus.op_class::SimdSha256Hash2            0                       # Class of executed instruction
system.switch_cpus.op_class::SimdShaSigma2            0                       # Class of executed instruction
system.switch_cpus.op_class::SimdShaSigma3            0                       # Class of executed instruction
system.switch_cpus.op_class::SimdPredAlu            0                       # Class of executed instruction
system.switch_cpus.op_class::MemRead                0                       # Class of executed instruction
system.switch_cpus.op_class::MemWrite               0                       # Class of executed instruction
system.switch_cpus.op_class::FloatMemRead            0                       # Class of executed instruction
system.switch_cpus.op_class::FloatMemWrite            0                       # Class of executed instruction
system.switch_cpus.op_class::IprAccess              0                       # Class of executed instruction
system.switch_cpus.op_class::InstPrefetch            0                       # Class of executed instruction
system.switch_cpus.op_class::total                  0                       # Class of executed instruction
system.switch_cpus_1.branchPred.BTBCorrect            0                       # Number of correct BTB predictions (this stat may not work properly.
system.switch_cpus_1.branchPred.BTBHitPct          nan                       # BTB Hit Percentage
system.switch_cpus_1.branchPred.BTBHits             0                       # Number of BTB hits
system.switch_cpus_1.branchPred.BTBLookups            0                       # Number of BTB lookups
system.switch_cpus_1.branchPred.RASInCorrect          162                       # Number of incorrect RAS predictions.
system.switch_cpus_1.branchPred.condIncorrect     12180789                       # Number of conditional branches incorrect
system.switch_cpus_1.branchPred.condPredicted    236971664                       # Number of conditional branches predicted
system.switch_cpus_1.branchPred.indirectHits    101578417                       # Number of indirect target hits.
system.switch_cpus_1.branchPred.indirectLookups    132287733                       # Number of indirect predictor lookups.
system.switch_cpus_1.branchPred.indirectMisses     30709316                       # Number of indirect misses.
system.switch_cpus_1.branchPred.lookups     264931256                       # Number of BP lookups
system.switch_cpus_1.branchPred.loop_predictor.loopPredictorCorrect      2067671                       # Number of times the loop predictor is the provider and the prediction is correct
system.switch_cpus_1.branchPred.loop_predictor.loopPredictorWrong        25969                       # Number of times the loop predictor is the provider and the prediction is wrong
system.switch_cpus_1.branchPred.statistical_corrector.scPredictorCorrect      1030937                       # Number of time the SC predictor is the provider and the prediction is correct
system.switch_cpus_1.branchPred.statistical_corrector.scPredictorWrong      1861869                       # Number of time the SC predictor is the provider and the prediction is wrong
system.switch_cpus_1.branchPred.tage.bimodalAltMatchProviderCorrect        27826                       # Number of times TAGE Alt Match is the bimodal and it is the provider and the prediction is correct
system.switch_cpus_1.branchPred.tage.bimodalAltMatchProviderWrong         2261                       # Number of times TAGE Alt Match is the bimodal and it is the provider and the prediction is wrong
system.switch_cpus_1.branchPred.tage.tageAltMatchProvider::0     13471431                       # TAGE provider for alt match
system.switch_cpus_1.branchPred.tage.tageAltMatchProvider::1            0                       # TAGE provider for alt match
system.switch_cpus_1.branchPred.tage.tageAltMatchProvider::2      1675706                       # TAGE provider for alt match
system.switch_cpus_1.branchPred.tage.tageAltMatchProvider::3            0                       # TAGE provider for alt match
system.switch_cpus_1.branchPred.tage.tageAltMatchProvider::4      1676465                       # TAGE provider for alt match
system.switch_cpus_1.branchPred.tage.tageAltMatchProvider::5            0                       # TAGE provider for alt match
system.switch_cpus_1.branchPred.tage.tageAltMatchProvider::6      1259574                       # TAGE provider for alt match
system.switch_cpus_1.branchPred.tage.tageAltMatchProvider::7      6252732                       # TAGE provider for alt match
system.switch_cpus_1.branchPred.tage.tageAltMatchProvider::8      1852763                       # TAGE provider for alt match
system.switch_cpus_1.branchPred.tage.tageAltMatchProvider::9       824661                       # TAGE provider for alt match
system.switch_cpus_1.branchPred.tage.tageAltMatchProvider::10      3549919                       # TAGE provider for alt match
system.switch_cpus_1.branchPred.tage.tageAltMatchProvider::11       929968                       # TAGE provider for alt match
system.switch_cpus_1.branchPred.tage.tageAltMatchProvider::12       489003                       # TAGE provider for alt match
system.switch_cpus_1.branchPred.tage.tageAltMatchProvider::13      1496607                       # TAGE provider for alt match
system.switch_cpus_1.branchPred.tage.tageAltMatchProvider::14      1279854                       # TAGE provider for alt match
system.switch_cpus_1.branchPred.tage.tageAltMatchProvider::15       896405                       # TAGE provider for alt match
system.switch_cpus_1.branchPred.tage.tageAltMatchProvider::16      1547444                       # TAGE provider for alt match
system.switch_cpus_1.branchPred.tage.tageAltMatchProvider::17      1416646                       # TAGE provider for alt match
system.switch_cpus_1.branchPred.tage.tageAltMatchProvider::18      1482449                       # TAGE provider for alt match
system.switch_cpus_1.branchPred.tage.tageAltMatchProvider::19       793717                       # TAGE provider for alt match
system.switch_cpus_1.branchPred.tage.tageAltMatchProvider::20       773188                       # TAGE provider for alt match
system.switch_cpus_1.branchPred.tage.tageAltMatchProvider::21            0                       # TAGE provider for alt match
system.switch_cpus_1.branchPred.tage.tageAltMatchProvider::22       880326                       # TAGE provider for alt match
system.switch_cpus_1.branchPred.tage.tageAltMatchProvider::23            0                       # TAGE provider for alt match
system.switch_cpus_1.branchPred.tage.tageAltMatchProvider::24       699410                       # TAGE provider for alt match
system.switch_cpus_1.branchPred.tage.tageAltMatchProvider::25            0                       # TAGE provider for alt match
system.switch_cpus_1.branchPred.tage.tageAltMatchProvider::26       704239                       # TAGE provider for alt match
system.switch_cpus_1.branchPred.tage.tageAltMatchProvider::27            0                       # TAGE provider for alt match
system.switch_cpus_1.branchPred.tage.tageAltMatchProvider::28       758314                       # TAGE provider for alt match
system.switch_cpus_1.branchPred.tage.tageAltMatchProvider::29            0                       # TAGE provider for alt match
system.switch_cpus_1.branchPred.tage.tageAltMatchProvider::30            0                       # TAGE provider for alt match
system.switch_cpus_1.branchPred.tage.tageAltMatchProviderCorrect       707974                       # Number of times TAGE Alt Match is the provider and the prediction is correct
system.switch_cpus_1.branchPred.tage.tageAltMatchProviderWouldHaveHit       763956                       # Number of times TAGE Longest Match is the provider, the prediction is wrong and Alt Match prediction was correct
system.switch_cpus_1.branchPred.tage.tageAltMatchProviderWrong       449280                       # Number of times TAGE Alt Match is the provider and the prediction is wrong
system.switch_cpus_1.branchPred.tage.tageBimodalProviderCorrect    115657622                       # Number of times there are no hits on the TAGE tables and the bimodal prediction is correct
system.switch_cpus_1.branchPred.tage.tageBimodalProviderWrong         8466                       # Number of times there are no hits on the TAGE tables and the bimodal prediction is wrong
system.switch_cpus_1.branchPred.tage.tageLongestMatchProvider::0            0                       # TAGE provider for longest match
system.switch_cpus_1.branchPred.tage.tageLongestMatchProvider::1            0                       # TAGE provider for longest match
system.switch_cpus_1.branchPred.tage.tageLongestMatchProvider::2      1713576                       # TAGE provider for longest match
system.switch_cpus_1.branchPred.tage.tageLongestMatchProvider::3            0                       # TAGE provider for longest match
system.switch_cpus_1.branchPred.tage.tageLongestMatchProvider::4      1447447                       # TAGE provider for longest match
system.switch_cpus_1.branchPred.tage.tageLongestMatchProvider::5            0                       # TAGE provider for longest match
system.switch_cpus_1.branchPred.tage.tageLongestMatchProvider::6      2546095                       # TAGE provider for longest match
system.switch_cpus_1.branchPred.tage.tageLongestMatchProvider::7      3613647                       # TAGE provider for longest match
system.switch_cpus_1.branchPred.tage.tageLongestMatchProvider::8      2383768                       # TAGE provider for longest match
system.switch_cpus_1.branchPred.tage.tageLongestMatchProvider::9      2380803                       # TAGE provider for longest match
system.switch_cpus_1.branchPred.tage.tageLongestMatchProvider::10      9201855                       # TAGE provider for longest match
system.switch_cpus_1.branchPred.tage.tageLongestMatchProvider::11       919634                       # TAGE provider for longest match
system.switch_cpus_1.branchPred.tage.tageLongestMatchProvider::12      1008156                       # TAGE provider for longest match
system.switch_cpus_1.branchPred.tage.tageLongestMatchProvider::13       854881                       # TAGE provider for longest match
system.switch_cpus_1.branchPred.tage.tageLongestMatchProvider::14      1029220                       # TAGE provider for longest match
system.switch_cpus_1.branchPred.tage.tageLongestMatchProvider::15       853995                       # TAGE provider for longest match
system.switch_cpus_1.branchPred.tage.tageLongestMatchProvider::16      2022403                       # TAGE provider for longest match
system.switch_cpus_1.branchPred.tage.tageLongestMatchProvider::17      2163486                       # TAGE provider for longest match
system.switch_cpus_1.branchPred.tage.tageLongestMatchProvider::18      1734042                       # TAGE provider for longest match
system.switch_cpus_1.branchPred.tage.tageLongestMatchProvider::19      2190810                       # TAGE provider for longest match
system.switch_cpus_1.branchPred.tage.tageLongestMatchProvider::20      2273453                       # TAGE provider for longest match
system.switch_cpus_1.branchPred.tage.tageLongestMatchProvider::21            0                       # TAGE provider for longest match
system.switch_cpus_1.branchPred.tage.tageLongestMatchProvider::22      1524759                       # TAGE provider for longest match
system.switch_cpus_1.branchPred.tage.tageLongestMatchProvider::23            0                       # TAGE provider for longest match
system.switch_cpus_1.branchPred.tage.tageLongestMatchProvider::24      1103279                       # TAGE provider for longest match
system.switch_cpus_1.branchPred.tage.tageLongestMatchProvider::25            0                       # TAGE provider for longest match
system.switch_cpus_1.branchPred.tage.tageLongestMatchProvider::26      1286657                       # TAGE provider for longest match
system.switch_cpus_1.branchPred.tage.tageLongestMatchProvider::27            0                       # TAGE provider for longest match
system.switch_cpus_1.branchPred.tage.tageLongestMatchProvider::28      1083505                       # TAGE provider for longest match
system.switch_cpus_1.branchPred.tage.tageLongestMatchProvider::29            0                       # TAGE provider for longest match
system.switch_cpus_1.branchPred.tage.tageLongestMatchProvider::30      1375350                       # TAGE provider for longest match
system.switch_cpus_1.branchPred.tage.tageLongestMatchProviderCorrect     41473864                       # Number of times TAGE Longest Match is the provider and the prediction is correct
system.switch_cpus_1.branchPred.tage.tageLongestMatchProviderWouldHaveHit       239019                       # Number of times TAGE Alt Match is the provider, the prediction is wrong and Longest Match prediction was correct
system.switch_cpus_1.branchPred.tage.tageLongestMatchProviderWrong      2079703                       # Number of times TAGE Longest Match is the provider and the prediction is wrong
system.switch_cpus_1.branchPred.usedRAS      13140214                       # Number of times the RAS was used to get a target.
system.switch_cpus_1.branchPred.wormholepredictor.whPredictorCorrect      3007616                       # Number of time the WH predictor is the provider and the prediction is correct
system.switch_cpus_1.branchPred.wormholepredictor.whPredictorWrong          140                       # Number of time the WH predictor is the provider and the prediction is wrong
system.switch_cpus_1.branchPredindirectMispredicted      7934433                       # Number of mispredicted indirect branches.
system.switch_cpus_1.cc_regfile_reads      1003353036                       # number of cc regfile reads
system.switch_cpus_1.cc_regfile_writes      581824920                       # number of cc regfile writes
system.switch_cpus_1.commit.amos                    0                       # Number of atomic instructions committed
system.switch_cpus_1.commit.branchMispredicts     12196359                       # The number of times a branch was mispredicted
system.switch_cpus_1.commit.branches        186020287                       # Number of branches committed
system.switch_cpus_1.commit.bw_lim_events    107296299                       # number cycles where commit BW limit reached
system.switch_cpus_1.commit.commitNonSpecStalls          778                       # The number of times commit has been forced to stall to communicate backwards
system.switch_cpus_1.commit.commitSquashedInsts    409839115                       # The number of squashed insts skipped by commit
system.switch_cpus_1.commit.committedInsts   1000000000                       # Number of instructions committed
system.switch_cpus_1.commit.committedOps   1913177479                       # Number of ops (including micro ops) committed
system.switch_cpus_1.commit.committed_per_cycle::samples    765264507                       # Number of insts commited each cycle
system.switch_cpus_1.commit.committed_per_cycle::mean     2.500021                       # Number of insts commited each cycle
system.switch_cpus_1.commit.committed_per_cycle::stdev     2.816025                       # Number of insts commited each cycle
system.switch_cpus_1.commit.committed_per_cycle::underflows            0      0.00%      0.00% # Number of insts commited each cycle
system.switch_cpus_1.commit.committed_per_cycle::0    273498021     35.74%     35.74% # Number of insts commited each cycle
system.switch_cpus_1.commit.committed_per_cycle::1    119109612     15.56%     51.30% # Number of insts commited each cycle
system.switch_cpus_1.commit.committed_per_cycle::2     71049995      9.28%     60.59% # Number of insts commited each cycle
system.switch_cpus_1.commit.committed_per_cycle::3     94722607     12.38%     72.97% # Number of insts commited each cycle
system.switch_cpus_1.commit.committed_per_cycle::4     39438621      5.15%     78.12% # Number of insts commited each cycle
system.switch_cpus_1.commit.committed_per_cycle::5     26115846      3.41%     81.53% # Number of insts commited each cycle
system.switch_cpus_1.commit.committed_per_cycle::6     17138592      2.24%     83.77% # Number of insts commited each cycle
system.switch_cpus_1.commit.committed_per_cycle::7     16894914      2.21%     85.98% # Number of insts commited each cycle
system.switch_cpus_1.commit.committed_per_cycle::8    107296299     14.02%    100.00% # Number of insts commited each cycle
system.switch_cpus_1.commit.committed_per_cycle::overflows            0      0.00%    100.00% # Number of insts commited each cycle
system.switch_cpus_1.commit.committed_per_cycle::min_value            0                       # Number of insts commited each cycle
system.switch_cpus_1.commit.committed_per_cycle::max_value            8                       # Number of insts commited each cycle
system.switch_cpus_1.commit.committed_per_cycle::total    765264507                       # Number of insts commited each cycle
system.switch_cpus_1.commit.fp_insts        342164187                       # Number of committed floating point instructions.
system.switch_cpus_1.commit.function_calls      9247180                       # Number of function calls committed.
system.switch_cpus_1.commit.int_insts      1644843511                       # Number of committed integer instructions.
system.switch_cpus_1.commit.loads           234446740                       # Number of loads committed
system.switch_cpus_1.commit.membars               140                       # Number of memory barriers committed
system.switch_cpus_1.commit.op_class_0::No_OpClass      5783846      0.30%      0.30% # Class of committed instruction
system.switch_cpus_1.commit.op_class_0::IntAlu   1346448997     70.38%     70.68% # Class of committed instruction
system.switch_cpus_1.commit.op_class_0::IntMult      1181117      0.06%     70.74% # Class of committed instruction
system.switch_cpus_1.commit.op_class_0::IntDiv      5794698      0.30%     71.04% # Class of committed instruction
system.switch_cpus_1.commit.op_class_0::FloatAdd     46866852      2.45%     73.49% # Class of committed instruction
system.switch_cpus_1.commit.op_class_0::FloatCmp            0      0.00%     73.49% # Class of committed instruction
system.switch_cpus_1.commit.op_class_0::FloatCvt          112      0.00%     73.49% # Class of committed instruction
system.switch_cpus_1.commit.op_class_0::FloatMult            0      0.00%     73.49% # Class of committed instruction
system.switch_cpus_1.commit.op_class_0::FloatMultAcc            0      0.00%     73.49% # Class of committed instruction
system.switch_cpus_1.commit.op_class_0::FloatDiv            0      0.00%     73.49% # Class of committed instruction
system.switch_cpus_1.commit.op_class_0::FloatMisc            0      0.00%     73.49% # Class of committed instruction
system.switch_cpus_1.commit.op_class_0::FloatSqrt            0      0.00%     73.49% # Class of committed instruction
system.switch_cpus_1.commit.op_class_0::SimdAdd            0      0.00%     73.49% # Class of committed instruction
system.switch_cpus_1.commit.op_class_0::SimdAddAcc            0      0.00%     73.49% # Class of committed instruction
system.switch_cpus_1.commit.op_class_0::SimdAlu     22244818      1.16%     74.66% # Class of committed instruction
system.switch_cpus_1.commit.op_class_0::SimdCmp       687450      0.04%     74.69% # Class of committed instruction
system.switch_cpus_1.commit.op_class_0::SimdCvt      4362488      0.23%     74.92% # Class of committed instruction
system.switch_cpus_1.commit.op_class_0::SimdMisc     12842429      0.67%     75.59% # Class of committed instruction
system.switch_cpus_1.commit.op_class_0::SimdMult            0      0.00%     75.59% # Class of committed instruction
system.switch_cpus_1.commit.op_class_0::SimdMultAcc            0      0.00%     75.59% # Class of committed instruction
system.switch_cpus_1.commit.op_class_0::SimdShift            0      0.00%     75.59% # Class of committed instruction
system.switch_cpus_1.commit.op_class_0::SimdShiftAcc            0      0.00%     75.59% # Class of committed instruction
system.switch_cpus_1.commit.op_class_0::SimdDiv            0      0.00%     75.59% # Class of committed instruction
system.switch_cpus_1.commit.op_class_0::SimdSqrt            0      0.00%     75.59% # Class of committed instruction
system.switch_cpus_1.commit.op_class_0::SimdFloatAdd     49159879      2.57%     78.16% # Class of committed instruction
system.switch_cpus_1.commit.op_class_0::SimdFloatAlu            0      0.00%     78.16% # Class of committed instruction
system.switch_cpus_1.commit.op_class_0::SimdFloatCmp            0      0.00%     78.16% # Class of committed instruction
system.switch_cpus_1.commit.op_class_0::SimdFloatCvt     45731328      2.39%     80.55% # Class of committed instruction
system.switch_cpus_1.commit.op_class_0::SimdFloatDiv      1922135      0.10%     80.65% # Class of committed instruction
system.switch_cpus_1.commit.op_class_0::SimdFloatMisc            0      0.00%     80.65% # Class of committed instruction
system.switch_cpus_1.commit.op_class_0::SimdFloatMult     22831089      1.19%     81.85% # Class of committed instruction
system.switch_cpus_1.commit.op_class_0::SimdFloatMultAcc            0      0.00%     81.85% # Class of committed instruction
system.switch_cpus_1.commit.op_class_0::SimdFloatSqrt            0      0.00%     81.85% # Class of committed instruction
system.switch_cpus_1.commit.op_class_0::SimdReduceAdd            0      0.00%     81.85% # Class of committed instruction
system.switch_cpus_1.commit.op_class_0::SimdReduceAlu            0      0.00%     81.85% # Class of committed instruction
system.switch_cpus_1.commit.op_class_0::SimdReduceCmp            0      0.00%     81.85% # Class of committed instruction
system.switch_cpus_1.commit.op_class_0::SimdFloatReduceAdd            0      0.00%     81.85% # Class of committed instruction
system.switch_cpus_1.commit.op_class_0::SimdFloatReduceCmp            0      0.00%     81.85% # Class of committed instruction
system.switch_cpus_1.commit.op_class_0::SimdAes            0      0.00%     81.85% # Class of committed instruction
system.switch_cpus_1.commit.op_class_0::SimdAesMix            0      0.00%     81.85% # Class of committed instruction
system.switch_cpus_1.commit.op_class_0::SimdSha1Hash            0      0.00%     81.85% # Class of committed instruction
system.switch_cpus_1.commit.op_class_0::SimdSha1Hash2            0      0.00%     81.85% # Class of committed instruction
system.switch_cpus_1.commit.op_class_0::SimdSha256Hash            0      0.00%     81.85% # Class of committed instruction
system.switch_cpus_1.commit.op_class_0::SimdSha256Hash2            0      0.00%     81.85% # Class of committed instruction
system.switch_cpus_1.commit.op_class_0::SimdShaSigma2            0      0.00%     81.85% # Class of committed instruction
system.switch_cpus_1.commit.op_class_0::SimdShaSigma3            0      0.00%     81.85% # Class of committed instruction
system.switch_cpus_1.commit.op_class_0::SimdPredAlu            0      0.00%     81.85% # Class of committed instruction
system.switch_cpus_1.commit.op_class_0::MemRead    174644765      9.13%     90.97% # Class of committed instruction
system.switch_cpus_1.commit.op_class_0::MemWrite    102526791      5.36%     96.33% # Class of committed instruction
system.switch_cpus_1.commit.op_class_0::FloatMemRead     59801975      3.13%     99.46% # Class of committed instruction
system.switch_cpus_1.commit.op_class_0::FloatMemWrite     10346710      0.54%    100.00% # Class of committed instruction
system.switch_cpus_1.commit.op_class_0::IprAccess            0      0.00%    100.00% # Class of committed instruction
system.switch_cpus_1.commit.op_class_0::InstPrefetch            0      0.00%    100.00% # Class of committed instruction
system.switch_cpus_1.commit.op_class_0::total   1913177479                       # Class of committed instruction
system.switch_cpus_1.commit.refs            347320241                       # Number of memory references committed
system.switch_cpus_1.commit.swp_count               0                       # Number of s/w prefetches committed
system.switch_cpus_1.commit.vec_insts               0                       # Number of committed Vector instructions.
system.switch_cpus_1.committedInsts        1000000000                       # Number of Instructions Simulated
system.switch_cpus_1.committedOps          1913177479                       # Number of Ops (including micro ops) Simulated
system.switch_cpus_1.cpi                     0.823997                       # CPI: Cycles Per Instruction
system.switch_cpus_1.cpi_total               0.823997                       # CPI: Total CPI of All Threads
system.switch_cpus_1.decode.BlockedCycles    302404401                       # Number of cycles decode is blocked
system.switch_cpus_1.decode.DecodedInsts   2482031950                       # Number of instructions handled by decode
system.switch_cpus_1.decode.IdleCycles      155497881                       # Number of cycles decode is idle
system.switch_cpus_1.decode.RunCycles       248208195                       # Number of cycles decode is running
system.switch_cpus_1.decode.SquashCycles     12206697                       # Number of cycles decode is squashing
system.switch_cpus_1.decode.UnblockCycles    104945413                       # Number of cycles decode is unblocking
system.switch_cpus_1.dtb.rdAccesses         253368072                       # TLB accesses on read requests
system.switch_cpus_1.dtb.rdMisses              574552                       # TLB misses on read requests
system.switch_cpus_1.dtb.wrAccesses         120916288                       # TLB accesses on write requests
system.switch_cpus_1.dtb.wrMisses              316975                       # TLB misses on write requests
system.switch_cpus_1.fetch.Branches         264931256                       # Number of branches that fetch encountered
system.switch_cpus_1.fetch.CacheLines       196555887                       # Number of cache lines fetched
system.switch_cpus_1.fetch.Cycles           592679543                       # Number of cycles fetch has run and was not squashing or blocked
system.switch_cpus_1.fetch.IcacheSquashes      3302724                       # Number of outstanding Icache misses that were squashed
system.switch_cpus_1.fetch.IcacheWaitRetryStallCycles          273                       # Number of stall cycles due to full MSHR
system.switch_cpus_1.fetch.Insts           1421256706                       # Number of instructions fetch has processed
system.switch_cpus_1.fetch.MiscStallCycles        19114                       # Number of cycles fetch has spent waiting on interrupts, or bad addresses, or out of MSHRs
system.switch_cpus_1.fetch.PendingTrapStallCycles       223478                       # Number of stall cycles due to pending traps
system.switch_cpus_1.fetch.SquashCycles      24413394                       # Number of cycles fetch has spent squashing
system.switch_cpus_1.fetch.TlbCycles                1                       # Number of cycles fetch has spent waiting for tlb
system.switch_cpus_1.fetch.branchRate        0.321520                       # Number of branch fetches per cycle
system.switch_cpus_1.fetch.icacheStallCycles    218133483                       # Number of cycles fetch is stalled on an Icache miss
system.switch_cpus_1.fetch.predictedBranches    114718631                       # Number of branches that fetch has predicted taken
system.switch_cpus_1.fetch.rate              1.724832                       # Number of inst fetches per cycle
system.switch_cpus_1.fetch.rateDist::samples    823262589                       # Number of instructions fetched each cycle (Total)
system.switch_cpus_1.fetch.rateDist::mean     3.276437                       # Number of instructions fetched each cycle (Total)
system.switch_cpus_1.fetch.rateDist::stdev     3.534415                       # Number of instructions fetched each cycle (Total)
system.switch_cpus_1.fetch.rateDist::underflows            0      0.00%      0.00% # Number of instructions fetched each cycle (Total)
system.switch_cpus_1.fetch.rateDist::0      382665555     46.48%     46.48% # Number of instructions fetched each cycle (Total)
system.switch_cpus_1.fetch.rateDist::1       29304118      3.56%     50.04% # Number of instructions fetched each cycle (Total)
system.switch_cpus_1.fetch.rateDist::2       28061810      3.41%     53.45% # Number of instructions fetched each cycle (Total)
system.switch_cpus_1.fetch.rateDist::3       34996697      4.25%     57.70% # Number of instructions fetched each cycle (Total)
system.switch_cpus_1.fetch.rateDist::4       25105314      3.05%     60.75% # Number of instructions fetched each cycle (Total)
system.switch_cpus_1.fetch.rateDist::5       35037271      4.26%     65.01% # Number of instructions fetched each cycle (Total)
system.switch_cpus_1.fetch.rateDist::6       25446958      3.09%     68.10% # Number of instructions fetched each cycle (Total)
system.switch_cpus_1.fetch.rateDist::7       22498512      2.73%     70.83% # Number of instructions fetched each cycle (Total)
system.switch_cpus_1.fetch.rateDist::8      240146354     29.17%    100.00% # Number of instructions fetched each cycle (Total)
system.switch_cpus_1.fetch.rateDist::overflows            0      0.00%    100.00% # Number of instructions fetched each cycle (Total)
system.switch_cpus_1.fetch.rateDist::min_value            0                       # Number of instructions fetched each cycle (Total)
system.switch_cpus_1.fetch.rateDist::max_value            8                       # Number of instructions fetched each cycle (Total)
system.switch_cpus_1.fetch.rateDist::total    823262589                       # Number of instructions fetched each cycle (Total)
system.switch_cpus_1.fp_regfile_reads       558950399                       # number of floating regfile reads
system.switch_cpus_1.fp_regfile_writes      324631779                       # number of floating regfile writes
system.switch_cpus_1.idleCycles                734830                       # Total number of cycles that the CPU has spent unscheduled due to idling
system.switch_cpus_1.iew.branchMispredicts     14955398                       # Number of branch mispredicts detected at execute
system.switch_cpus_1.iew.exec_branches      197251259                       # Number of branches executed
system.switch_cpus_1.iew.exec_nop                   0                       # number of nop insts executed
system.switch_cpus_1.iew.exec_rate           2.528390                       # Inst execution rate
system.switch_cpus_1.iew.exec_refs          377837557                       # number of memory reference insts executed
system.switch_cpus_1.iew.exec_stores        120867316                       # Number of stores executed
system.switch_cpus_1.iew.exec_swp                   0                       # number of swp insts executed
system.switch_cpus_1.iew.iewBlockCycles     119524162                       # Number of cycles IEW is blocking
system.switch_cpus_1.iew.iewDispLoadInsts    282504343                       # Number of dispatched load instructions
system.switch_cpus_1.iew.iewDispNonSpecInsts       163707                       # Number of dispatched non-speculative instructions
system.switch_cpus_1.iew.iewDispSquashedInsts       230144                       # Number of squashed instructions skipped by dispatch
system.switch_cpus_1.iew.iewDispStoreInsts    137673042                       # Number of dispatched store instructions
system.switch_cpus_1.iew.iewDispatchedInsts   2323084253                       # Number of instructions dispatched to IQ
system.switch_cpus_1.iew.iewExecLoadInsts    256970241                       # Number of load instructions executed
system.switch_cpus_1.iew.iewExecSquashedInsts     10393509                       # Number of squashed instructions skipped in execute
system.switch_cpus_1.iew.iewExecutedInsts   2083386616                       # Number of executed instructions
system.switch_cpus_1.iew.iewIQFullEvents       890905                       # Number of times the IQ has become full, causing a stall
system.switch_cpus_1.iew.iewIdleCycles              0                       # Number of cycles IEW is idle
system.switch_cpus_1.iew.iewLSQFullEvents      4377005                       # Number of times the LSQ has become full, causing a stall
system.switch_cpus_1.iew.iewSquashCycles     12206697                       # Number of cycles IEW is squashing
system.switch_cpus_1.iew.iewUnblockCycles      5836429                       # Number of cycles IEW is unblocking
system.switch_cpus_1.iew.lsq.thread0.blockedLoads            0                       # Number of blocked loads due to partial load-store forwarding
system.switch_cpus_1.iew.lsq.thread0.cacheBlocked       119411                       # Number of times an access to memory failed due to the cache being blocked
system.switch_cpus_1.iew.lsq.thread0.forwLoads     24573354                       # Number of loads that had data forwarded from stores
system.switch_cpus_1.iew.lsq.thread0.ignoredResponses        20601                       # Number of memory responses ignored because the instruction is squashed
system.switch_cpus_1.iew.lsq.thread0.invAddrLoads            0                       # Number of loads ignored due to an invalid address
system.switch_cpus_1.iew.lsq.thread0.invAddrSwpfs            0                       # Number of software prefetches ignored due to an invalid address
system.switch_cpus_1.iew.lsq.thread0.memOrderViolation        13108                       # Number of memory ordering violations
system.switch_cpus_1.iew.lsq.thread0.rescheduledLoads        46829                       # Number of loads that were rescheduled
system.switch_cpus_1.iew.lsq.thread0.squashedLoads     48057595                       # Number of loads squashed
system.switch_cpus_1.iew.lsq.thread0.squashedStores     24799538                       # Number of stores squashed
system.switch_cpus_1.iew.memOrderViolationEvents        13108                       # Number of memory order violations
system.switch_cpus_1.iew.predictedNotTakenIncorrect     13162363                       # Number of branches that were predicted not taken incorrectly
system.switch_cpus_1.iew.predictedTakenIncorrect      1793035                       # Number of branches that were predicted taken incorrectly
system.switch_cpus_1.iew.wb_consumers      2547021787                       # num instructions consuming a value
system.switch_cpus_1.iew.wb_count          2072126715                       # cumulative count of insts written-back
system.switch_cpus_1.iew.wb_fanout           0.606819                       # average fanout of values written-back
system.switch_cpus_1.iew.wb_producers      1545582333                       # num instructions producing a value
system.switch_cpus_1.iew.wb_rate             2.514725                       # insts written-back per cycle
system.switch_cpus_1.iew.wb_sent           2076160393                       # cumulative count of insts sent to commit
system.switch_cpus_1.int_regfile_reads     2613433907                       # number of integer regfile reads
system.switch_cpus_1.int_regfile_writes    1412817281                       # number of integer regfile writes
system.switch_cpus_1.ipc                     1.213596                       # IPC: Instructions Per Cycle
system.switch_cpus_1.ipc_total               1.213596                       # IPC: Total IPC of All Threads
system.switch_cpus_1.iq.FU_type_0::No_OpClass      9387074      0.45%      0.45% # Type of FU issued
system.switch_cpus_1.iq.FU_type_0::IntAlu   1473890336     70.39%     70.84% # Type of FU issued
system.switch_cpus_1.iq.FU_type_0::IntMult      1205311      0.06%     70.90% # Type of FU issued
system.switch_cpus_1.iq.FU_type_0::IntDiv      5941048      0.28%     71.18% # Type of FU issued
system.switch_cpus_1.iq.FU_type_0::FloatAdd     51270558      2.45%     73.63% # Type of FU issued
system.switch_cpus_1.iq.FU_type_0::FloatCmp            0      0.00%     73.63% # Type of FU issued
system.switch_cpus_1.iq.FU_type_0::FloatCvt         2658      0.00%     73.63% # Type of FU issued
system.switch_cpus_1.iq.FU_type_0::FloatMult            0      0.00%     73.63% # Type of FU issued
system.switch_cpus_1.iq.FU_type_0::FloatMultAcc            0      0.00%     73.63% # Type of FU issued
system.switch_cpus_1.iq.FU_type_0::FloatDiv            0      0.00%     73.63% # Type of FU issued
system.switch_cpus_1.iq.FU_type_0::FloatMisc            0      0.00%     73.63% # Type of FU issued
system.switch_cpus_1.iq.FU_type_0::FloatSqrt            0      0.00%     73.63% # Type of FU issued
system.switch_cpus_1.iq.FU_type_0::SimdAdd            0      0.00%     73.63% # Type of FU issued
system.switch_cpus_1.iq.FU_type_0::SimdAddAcc            0      0.00%     73.63% # Type of FU issued
system.switch_cpus_1.iq.FU_type_0::SimdAlu     23278145      1.11%     74.74% # Type of FU issued
system.switch_cpus_1.iq.FU_type_0::SimdCmp       707755      0.03%     74.78% # Type of FU issued
system.switch_cpus_1.iq.FU_type_0::SimdCvt      4601374      0.22%     75.00% # Type of FU issued
system.switch_cpus_1.iq.FU_type_0::SimdMisc     14183287      0.68%     75.67% # Type of FU issued
system.switch_cpus_1.iq.FU_type_0::SimdMult            0      0.00%     75.67% # Type of FU issued
system.switch_cpus_1.iq.FU_type_0::SimdMultAcc            0      0.00%     75.67% # Type of FU issued
system.switch_cpus_1.iq.FU_type_0::SimdShift            0      0.00%     75.67% # Type of FU issued
system.switch_cpus_1.iq.FU_type_0::SimdShiftAcc            0      0.00%     75.67% # Type of FU issued
system.switch_cpus_1.iq.FU_type_0::SimdDiv            0      0.00%     75.67% # Type of FU issued
system.switch_cpus_1.iq.FU_type_0::SimdSqrt            0      0.00%     75.67% # Type of FU issued
system.switch_cpus_1.iq.FU_type_0::SimdFloatAdd     52007384      2.48%     78.16% # Type of FU issued
system.switch_cpus_1.iq.FU_type_0::SimdFloatAlu            0      0.00%     78.16% # Type of FU issued
system.switch_cpus_1.iq.FU_type_0::SimdFloatCmp            0      0.00%     78.16% # Type of FU issued
system.switch_cpus_1.iq.FU_type_0::SimdFloatCvt     47919597      2.29%     80.45% # Type of FU issued
system.switch_cpus_1.iq.FU_type_0::SimdFloatDiv      1922712      0.09%     80.54% # Type of FU issued
system.switch_cpus_1.iq.FU_type_0::SimdFloatMisc            0      0.00%     80.54% # Type of FU issued
system.switch_cpus_1.iq.FU_type_0::SimdFloatMult     23502607      1.12%     81.66% # Type of FU issued
system.switch_cpus_1.iq.FU_type_0::SimdFloatMultAcc            0      0.00%     81.66% # Type of FU issued
system.switch_cpus_1.iq.FU_type_0::SimdFloatSqrt            0      0.00%     81.66% # Type of FU issued
system.switch_cpus_1.iq.FU_type_0::SimdReduceAdd            0      0.00%     81.66% # Type of FU issued
system.switch_cpus_1.iq.FU_type_0::SimdReduceAlu            0      0.00%     81.66% # Type of FU issued
system.switch_cpus_1.iq.FU_type_0::SimdReduceCmp            0      0.00%     81.66% # Type of FU issued
system.switch_cpus_1.iq.FU_type_0::SimdFloatReduceAdd            0      0.00%     81.66% # Type of FU issued
system.switch_cpus_1.iq.FU_type_0::SimdFloatReduceCmp            0      0.00%     81.66% # Type of FU issued
system.switch_cpus_1.iq.FU_type_0::SimdAes            0      0.00%     81.66% # Type of FU issued
system.switch_cpus_1.iq.FU_type_0::SimdAesMix            0      0.00%     81.66% # Type of FU issued
system.switch_cpus_1.iq.FU_type_0::SimdSha1Hash            0      0.00%     81.66% # Type of FU issued
system.switch_cpus_1.iq.FU_type_0::SimdSha1Hash2            0      0.00%     81.66% # Type of FU issued
system.switch_cpus_1.iq.FU_type_0::SimdSha256Hash            0      0.00%     81.66% # Type of FU issued
system.switch_cpus_1.iq.FU_type_0::SimdSha256Hash2            0      0.00%     81.66% # Type of FU issued
system.switch_cpus_1.iq.FU_type_0::SimdShaSigma2            0      0.00%     81.66% # Type of FU issued
system.switch_cpus_1.iq.FU_type_0::SimdShaSigma3            0      0.00%     81.66% # Type of FU issued
system.switch_cpus_1.iq.FU_type_0::SimdPredAlu            0      0.00%     81.66% # Type of FU issued
system.switch_cpus_1.iq.FU_type_0::MemRead    194249829      9.28%     90.94% # Type of FU issued
system.switch_cpus_1.iq.FU_type_0::MemWrite    110182639      5.26%     96.20% # Type of FU issued
system.switch_cpus_1.iq.FU_type_0::FloatMemRead     66993611      3.20%     99.40% # Type of FU issued
system.switch_cpus_1.iq.FU_type_0::FloatMemWrite     12534204      0.60%    100.00% # Type of FU issued
system.switch_cpus_1.iq.FU_type_0::IprAccess            0      0.00%    100.00% # Type of FU issued
system.switch_cpus_1.iq.FU_type_0::InstPrefetch            0      0.00%    100.00% # Type of FU issued
system.switch_cpus_1.iq.FU_type_0::total   2093780129                       # Type of FU issued
system.switch_cpus_1.iq.fp_alu_accesses     368703357                       # Number of floating point alu accesses
system.switch_cpus_1.iq.fp_inst_queue_reads    744946198                       # Number of floating instruction queue reads
system.switch_cpus_1.iq.fp_inst_queue_wakeup_accesses    365514906                       # Number of floating instruction queue wakeup accesses
system.switch_cpus_1.iq.fp_inst_queue_writes    467093479                       # Number of floating instruction queue writes
system.switch_cpus_1.iq.fu_busy_cnt                 0                       # FU busy when requested
system.switch_cpus_1.iq.fu_busy_rate                0                       # FU busy rate (busy events/executed inst)
system.switch_cpus_1.iq.fu_full::No_OpClass            0                       # attempts to use FU when none available
system.switch_cpus_1.iq.fu_full::IntAlu             0                       # attempts to use FU when none available
system.switch_cpus_1.iq.fu_full::IntMult            0                       # attempts to use FU when none available
system.switch_cpus_1.iq.fu_full::IntDiv             0                       # attempts to use FU when none available
system.switch_cpus_1.iq.fu_full::FloatAdd            0                       # attempts to use FU when none available
system.switch_cpus_1.iq.fu_full::FloatCmp            0                       # attempts to use FU when none available
system.switch_cpus_1.iq.fu_full::FloatCvt            0                       # attempts to use FU when none available
system.switch_cpus_1.iq.fu_full::FloatMult            0                       # attempts to use FU when none available
system.switch_cpus_1.iq.fu_full::FloatMultAcc            0                       # attempts to use FU when none available
system.switch_cpus_1.iq.fu_full::FloatDiv            0                       # attempts to use FU when none available
system.switch_cpus_1.iq.fu_full::FloatMisc            0                       # attempts to use FU when none available
system.switch_cpus_1.iq.fu_full::FloatSqrt            0                       # attempts to use FU when none available
system.switch_cpus_1.iq.fu_full::SimdAdd            0                       # attempts to use FU when none available
system.switch_cpus_1.iq.fu_full::SimdAddAcc            0                       # attempts to use FU when none available
system.switch_cpus_1.iq.fu_full::SimdAlu            0                       # attempts to use FU when none available
system.switch_cpus_1.iq.fu_full::SimdCmp            0                       # attempts to use FU when none available
system.switch_cpus_1.iq.fu_full::SimdCvt            0                       # attempts to use FU when none available
system.switch_cpus_1.iq.fu_full::SimdMisc            0                       # attempts to use FU when none available
system.switch_cpus_1.iq.fu_full::SimdMult            0                       # attempts to use FU when none available
system.switch_cpus_1.iq.fu_full::SimdMultAcc            0                       # attempts to use FU when none available
system.switch_cpus_1.iq.fu_full::SimdShift            0                       # attempts to use FU when none available
system.switch_cpus_1.iq.fu_full::SimdShiftAcc            0                       # attempts to use FU when none available
system.switch_cpus_1.iq.fu_full::SimdDiv            0                       # attempts to use FU when none available
system.switch_cpus_1.iq.fu_full::SimdSqrt            0                       # attempts to use FU when none available
system.switch_cpus_1.iq.fu_full::SimdFloatAdd            0                       # attempts to use FU when none available
system.switch_cpus_1.iq.fu_full::SimdFloatAlu            0                       # attempts to use FU when none available
system.switch_cpus_1.iq.fu_full::SimdFloatCmp            0                       # attempts to use FU when none available
system.switch_cpus_1.iq.fu_full::SimdFloatCvt            0                       # attempts to use FU when none available
system.switch_cpus_1.iq.fu_full::SimdFloatDiv            0                       # attempts to use FU when none available
system.switch_cpus_1.iq.fu_full::SimdFloatMisc            0                       # attempts to use FU when none available
system.switch_cpus_1.iq.fu_full::SimdFloatMult            0                       # attempts to use FU when none available
system.switch_cpus_1.iq.fu_full::SimdFloatMultAcc            0                       # attempts to use FU when none available
system.switch_cpus_1.iq.fu_full::SimdFloatSqrt            0                       # attempts to use FU when none available
system.switch_cpus_1.iq.fu_full::SimdReduceAdd            0                       # attempts to use FU when none available
system.switch_cpus_1.iq.fu_full::SimdReduceAlu            0                       # attempts to use FU when none available
system.switch_cpus_1.iq.fu_full::SimdReduceCmp            0                       # attempts to use FU when none available
system.switch_cpus_1.iq.fu_full::SimdFloatReduceAdd            0                       # attempts to use FU when none available
system.switch_cpus_1.iq.fu_full::SimdFloatReduceCmp            0                       # attempts to use FU when none available
system.switch_cpus_1.iq.fu_full::SimdAes            0                       # attempts to use FU when none available
system.switch_cpus_1.iq.fu_full::SimdAesMix            0                       # attempts to use FU when none available
system.switch_cpus_1.iq.fu_full::SimdSha1Hash            0                       # attempts to use FU when none available
system.switch_cpus_1.iq.fu_full::SimdSha1Hash2            0                       # attempts to use FU when none available
system.switch_cpus_1.iq.fu_full::SimdSha256Hash            0                       # attempts to use FU when none available
system.switch_cpus_1.iq.fu_full::SimdSha256Hash2            0                       # attempts to use FU when none available
system.switch_cpus_1.iq.fu_full::SimdShaSigma2            0                       # attempts to use FU when none available
system.switch_cpus_1.iq.fu_full::SimdShaSigma3            0                       # attempts to use FU when none available
system.switch_cpus_1.iq.fu_full::SimdPredAlu            0                       # attempts to use FU when none available
system.switch_cpus_1.iq.fu_full::MemRead            0                       # attempts to use FU when none available
system.switch_cpus_1.iq.fu_full::MemWrite            0                       # attempts to use FU when none available
system.switch_cpus_1.iq.fu_full::FloatMemRead            0                       # attempts to use FU when none available
system.switch_cpus_1.iq.fu_full::FloatMemWrite            0                       # attempts to use FU when none available
system.switch_cpus_1.iq.fu_full::IprAccess            0                       # attempts to use FU when none available
system.switch_cpus_1.iq.fu_full::InstPrefetch            0                       # attempts to use FU when none available
system.switch_cpus_1.iq.int_alu_accesses   1715689698                       # Number of integer alu accesses
system.switch_cpus_1.iq.int_inst_queue_reads   4331825655                       # Number of integer instruction queue reads
system.switch_cpus_1.iq.int_inst_queue_wakeup_accesses   1706611809                       # Number of integer instruction queue wakeup accesses
system.switch_cpus_1.iq.int_inst_queue_writes   2265905901                       # Number of integer instruction queue writes
system.switch_cpus_1.iq.iqInstsAdded       2322714152                       # Number of instructions added to the IQ (excludes non-spec)
system.switch_cpus_1.iq.iqInstsIssued      2093780129                       # Number of instructions issued
system.switch_cpus_1.iq.iqNonSpecInstsAdded       370101                       # Number of non-speculative instructions added to the IQ
system.switch_cpus_1.iq.iqSquashedInstsExamined    409906729                       # Number of squashed instructions iterated over during squash; mainly for profiling
system.switch_cpus_1.iq.iqSquashedInstsIssued     65949010                       # Number of squashed instructions issued
system.switch_cpus_1.iq.iqSquashedNonSpecRemoved       369323                       # Number of squashed non-spec instructions that were removed
system.switch_cpus_1.iq.iqSquashedOperandsExamined    692915930                       # Number of squashed operands that are examined and possibly removed from graph
system.switch_cpus_1.iq.issued_per_cycle::samples    823262589                       # Number of insts issued each cycle
system.switch_cpus_1.iq.issued_per_cycle::mean     2.543271                       # Number of insts issued each cycle
system.switch_cpus_1.iq.issued_per_cycle::stdev     1.768679                       # Number of insts issued each cycle
system.switch_cpus_1.iq.issued_per_cycle::underflows            0      0.00%      0.00% # Number of insts issued each cycle
system.switch_cpus_1.iq.issued_per_cycle::0    232125942     28.20%     28.20% # Number of insts issued each cycle
system.switch_cpus_1.iq.issued_per_cycle::1     40156433      4.88%     33.07% # Number of insts issued each cycle
system.switch_cpus_1.iq.issued_per_cycle::2     48320879      5.87%     38.94% # Number of insts issued each cycle
system.switch_cpus_1.iq.issued_per_cycle::3     53655402      6.52%     45.46% # Number of insts issued each cycle
system.switch_cpus_1.iq.issued_per_cycle::4    449003933     54.54%    100.00% # Number of insts issued each cycle
system.switch_cpus_1.iq.issued_per_cycle::overflows            0      0.00%    100.00% # Number of insts issued each cycle
system.switch_cpus_1.iq.issued_per_cycle::min_value            0                       # Number of insts issued each cycle
system.switch_cpus_1.iq.issued_per_cycle::max_value            4                       # Number of insts issued each cycle
system.switch_cpus_1.iq.issued_per_cycle::total    823262589                       # Number of insts issued each cycle
system.switch_cpus_1.iq.rate                 2.541003                       # Inst issue rate
system.switch_cpus_1.iq.vec_alu_accesses            0                       # Number of vector alu accesses
system.switch_cpus_1.iq.vec_inst_queue_reads            0                       # Number of vector instruction queue reads
system.switch_cpus_1.iq.vec_inst_queue_wakeup_accesses            0                       # Number of vector instruction queue wakeup accesses
system.switch_cpus_1.iq.vec_inst_queue_writes            0                       # Number of vector instruction queue writes
system.switch_cpus_1.itb.rdAccesses                 0                       # TLB accesses on read requests
system.switch_cpus_1.itb.rdMisses                   0                       # TLB misses on read requests
system.switch_cpus_1.itb.wrAccesses         196592187                       # TLB accesses on write requests
system.switch_cpus_1.itb.wrMisses               36723                       # TLB misses on write requests
system.switch_cpus_1.memDep0.conflictingLoads     18329915                       # Number of conflicting loads.
system.switch_cpus_1.memDep0.conflictingStores      5499578                       # Number of conflicting stores.
system.switch_cpus_1.memDep0.insertedLoads    282504343                       # Number of loads inserted to the mem dependence unit.
system.switch_cpus_1.memDep0.insertedStores    137673042                       # Number of stores inserted to the mem dependence unit.
system.switch_cpus_1.misc_regfile_reads     831490736                       # number of misc regfile reads
system.switch_cpus_1.misc_regfile_writes           63                       # number of misc regfile writes
system.switch_cpus_1.numCycles              823997419                       # number of cpu cycles simulated
system.switch_cpus_1.numWorkItemsCompleted            0                       # number of work items this cpu completed
system.switch_cpus_1.numWorkItemsStarted            0                       # number of work items this cpu started
system.switch_cpus_1.rename.BlockCycles     140128032                       # Number of cycles rename is blocking
system.switch_cpus_1.rename.CommittedMaps   2145497242                       # Number of HB maps that are committed
system.switch_cpus_1.rename.IQFullEvents    113767631                       # Number of times rename has blocked due to IQ full
system.switch_cpus_1.rename.IdleCycles      194096581                       # Number of cycles rename is idle
system.switch_cpus_1.rename.LQFullEvents      5805548                       # Number of times rename has blocked due to LQ full
system.switch_cpus_1.rename.ROBFullEvents       152089                       # Number of times rename has blocked due to ROB full
system.switch_cpus_1.rename.RenameLookups   5897587335                       # Number of register rename lookups that rename has made
system.switch_cpus_1.rename.RenamedInsts   2417773172                       # Number of instructions processed by rename
system.switch_cpus_1.rename.RenamedOperands   2696534979                       # Number of destination operands rename has renamed
system.switch_cpus_1.rename.RunCycles       313490362                       # Number of cycles rename is running
system.switch_cpus_1.rename.SQFullEvents     21174045                       # Number of times rename has blocked due to SQ full
system.switch_cpus_1.rename.SquashCycles     12206697                       # Number of cycles rename is squashing
system.switch_cpus_1.rename.UnblockCycles    163031410                       # Number of cycles rename is unblocking
system.switch_cpus_1.rename.UndoneMaps      551037667                       # Number of HB maps that are undone due to squashing
system.switch_cpus_1.rename.fp_rename_lookups    651468752                       # Number of floating rename lookups
system.switch_cpus_1.rename.int_rename_lookups   3088981243                       # Number of integer rename lookups
system.switch_cpus_1.rename.serializeStallCycles       309505                       # count of cycles rename stalled for serializing inst
system.switch_cpus_1.rename.serializingInsts        58243                       # count of serializing insts renamed
system.switch_cpus_1.rename.skidInsts       396500069                       # count of insts added to the skid buffer
system.switch_cpus_1.rename.tempSerializingInsts        74985                       # count of temporary serializing insts renamed
system.switch_cpus_1.rob.rob_reads         2980943527                       # The number of ROB reads
system.switch_cpus_1.rob.rob_writes        4704703997                       # The number of ROB writes
system.switch_cpus_1.timesIdled                132753                       # Number of times that the entire CPU went into an idle state and unscheduled itself
system.tol2bus.snoop_filter.hit_multi_requests          203                       # Number of requests hitting in the snoop filter with multiple (>1) holders of the requested data.
system.tol2bus.snoop_filter.hit_multi_snoops            0                       # Number of snoops hitting in the snoop filter with multiple (>1) holders of the requested data.
system.tol2bus.snoop_filter.hit_single_requests      2458056                       # Number of requests hitting in the snoop filter with a single holder of the requested data.
system.tol2bus.snoop_filter.hit_single_snoops         1734                       # Number of snoops hitting in the snoop filter with a single holder of the requested data.
system.tol2bus.snoop_filter.tot_requests      4916119                       # Total number of requests made to the snoop filter.
system.tol2bus.snoop_filter.tot_snoops           1734                       # Total number of snoops made to the snoop filter.
system.membus.trans_dist::ReadResp             918748                       # Transaction distribution
system.membus.trans_dist::WritebackDirty       313274                       # Transaction distribution
system.membus.trans_dist::CleanEvict           755990                       # Transaction distribution
system.membus.trans_dist::UpgradeReq                1                       # Transaction distribution
system.membus.trans_dist::ReadExReq            150194                       # Transaction distribution
system.membus.trans_dist::ReadExResp           150194                       # Transaction distribution
system.membus.trans_dist::ReadSharedReq        918748                       # Transaction distribution
system.membus.pkt_count_system.l2.mem_side::system.mem_ctrls.port      3207149                       # Packet count per connected master and slave (bytes)
system.membus.pkt_count_system.l2.mem_side::total      3207149                       # Packet count per connected master and slave (bytes)
system.membus.pkt_count::total                3207149                       # Packet count per connected master and slave (bytes)
system.membus.pkt_size_system.l2.mem_side::system.mem_ctrls.port     88461824                       # Cumulative packet size per connected master and slave (bytes)
system.membus.pkt_size_system.l2.mem_side::total     88461824                       # Cumulative packet size per connected master and slave (bytes)
system.membus.pkt_size::total                88461824                       # Cumulative packet size per connected master and slave (bytes)
system.membus.snoops                                0                       # Total snoops (count)
system.membus.snoopTraffic                          0                       # Total snoop traffic (bytes)
system.membus.snoop_fanout::samples           1068943                       # Request fanout histogram
[...]
system.cpu.dcache.demand_miss_latency::total 419524943499                       # number of demand (read+write) miss cycles
system.cpu.dcache.overall_miss_latency::.switch_cpus.data   1122306000                       # number of overall miss cycles
system.cpu.dcache.overall_miss_latency::.switch_cpus_1.data 418402637499                       # number of overall miss cycles
system.cpu.dcache.overall_miss_latency::total 419524943499                       # number of overall miss cycles
system.cpu.dcache.demand_accesses::.cpu.data    398468352                       # number of demand (read+write) accesses
system.cpu.dcache.demand_accesses::.switch_cpus.data     19936526                       # number of demand (read+write) accesses
system.cpu.dcache.demand_accesses::.switch_cpus_1.data    341132503                       # number of demand (read+write) accesses
system.cpu.dcache.demand_accesses::total    759537381                       # number of demand (read+write) accesses
system.cpu.dcache.overall_accesses::.cpu.data    398468352                       # number of overall (read+write) accesses
system.cpu.dcache.overall_accesses::.switch_cpus.data     19936526                       # number of overall (read+write) accesses
system.cpu.dcache.overall_accesses::.switch_cpus_1.data    341132503                       # number of overall (read+write) accesses
system.cpu.dcache.overall_accesses::total    759537381                       # number of overall (read+write) accesses
system.cpu.dcache.demand_miss_rate::.cpu.data     0.002579                       # miss rate for demand accesses
system.cpu.dcache.demand_miss_rate::.switch_cpus.data     0.002779                       # miss rate for demand accesses
system.cpu.dcache.demand_miss_rate::.switch_cpus_1.data     0.019621                       # miss rate for demand accesses
system.cpu.dcache.demand_miss_rate::total     0.010238                       # miss rate for demand accesses
system.cpu.dcache.overall_miss_rate::.cpu.data     0.002579                       # miss rate for overall accesses
system.cpu.dcache.overall_miss_rate::.switch_cpus.data     0.002779                       # miss rate for overall accesses
system.cpu.dcache.overall_miss_rate::.switch_cpus_1.data     0.019621                       # miss rate for overall accesses
system.cpu.dcache.overall_miss_rate::total     0.010238                       # miss rate for overall accesses
system.cpu.dcache.demand_avg_miss_latency::.switch_cpus.data 20259.328122                       # average overall miss latency
system.cpu.dcache.demand_avg_miss_latency::.switch_cpus_1.data 62510.347982                       # average overall miss latency
system.cpu.dcache.demand_avg_miss_latency::total 53949.109211                       # average overall miss latency
system.cpu.dcache.overall_avg_miss_latency::.switch_cpus.data 20259.328122                       # average overall miss latency
system.cpu.dcache.overall_avg_miss_latency::.switch_cpus_1.data 62510.347982                       # average overall miss latency
system.cpu.dcache.overall_avg_miss_latency::total 53949.109211                       # average overall miss latency
system.cpu.dcache.blocked_cycles::no_mshrs      5554701                       # number of cycles access was blocked
system.cpu.dcache.blocked_cycles::no_targets          740                       # number of cycles access was blocked
system.cpu.dcache.blocked::no_mshrs            147811                       # number of cycles access was blocked
system.cpu.dcache.blocked::no_targets               9                       # number of cycles access was blocked
system.cpu.dcache.avg_blocked_cycles::no_mshrs    37.579754                       # average number of cycles each access was blocked
system.cpu.dcache.avg_blocked_cycles::no_targets    82.222222                       # average number of cycles each access was blocked
system.cpu.dcache.writebacks::.writebacks      1421357                       # number of writebacks
system.cpu.dcache.writebacks::total           1421357                       # number of writebacks
system.cpu.dcache.demand_mshr_hits::.switch_cpus_1.data      5015619                       # number of demand (read+write) MSHR hits
system.cpu.dcache.demand_mshr_hits::total      5015619                       # number of demand (read+write) MSHR hits
system.cpu.dcache.overall_mshr_hits::.switch_cpus_1.data      5015619                       # number of overall MSHR hits
system.cpu.dcache.overall_mshr_hits::total      5015619                       # number of overall MSHR hits
system.cpu.dcache.demand_mshr_misses::.switch_cpus.data        55397                       # number of demand (read+write) MSHR misses
system.cpu.dcache.demand_mshr_misses::.switch_cpus_1.data      1677715                       # number of demand (read+write) MSHR misses
system.cpu.dcache.demand_mshr_misses::total      1733112                       # number of demand (read+write) MSHR misses
system.cpu.dcache.overall_mshr_misses::.switch_cpus.data        55397                       # number of overall MSHR misses
system.cpu.dcache.overall_mshr_misses::.switch_cpus_1.data      1677715                       # number of overall MSHR misses
system.cpu.dcache.overall_mshr_misses::total      1733112                       # number of overall MSHR misses
system.cpu.dcache.demand_mshr_miss_latency::.switch_cpus.data   1066909000                       # number of demand (read+write) MSHR miss cycles
system.cpu.dcache.demand_mshr_miss_latency::.switch_cpus_1.data  93022617000                       # number of demand (read+write) MSHR miss cycles
system.cpu.dcache.demand_mshr_miss_latency::total  94089526000                       # number of demand (read+write) MSHR miss cycles
system.cpu.dcache.overall_mshr_miss_latency::.switch_cpus.data   1066909000                       # number of overall MSHR miss cycles
system.cpu.dcache.overall_mshr_miss_latency::.switch_cpus_1.data  93022617000                       # number of overall MSHR miss cycles
system.cpu.dcache.overall_mshr_miss_latency::total  94089526000                       # number of overall MSHR miss cycles
system.cpu.dcache.demand_mshr_miss_rate::.switch_cpus.data     0.002779                       # mshr miss rate for demand accesses
system.cpu.dcache.demand_mshr_miss_rate::.switch_cpus_1.data     0.004918                       # mshr miss rate for demand accesses
system.cpu.dcache.demand_mshr_miss_rate::total     0.002282                       # mshr miss rate for demand accesses
system.cpu.dcache.overall_mshr_miss_rate::.switch_cpus.data     0.002779                       # mshr miss rate for overall accesses
system.cpu.dcache.overall_mshr_miss_rate::.switch_cpus_1.data     0.004918                       # mshr miss rate for overall accesses
system.cpu.dcache.overall_mshr_miss_rate::total     0.002282                       # mshr miss rate for overall accesses
system.cpu.dcache.demand_avg_mshr_miss_latency::.switch_cpus.data 19259.328122                       # average overall mshr miss latency
system.cpu.dcache.demand_avg_mshr_miss_latency::.switch_cpus_1.data 55446.018543                       # average overall mshr miss latency
system.cpu.dcache.demand_avg_mshr_miss_latency::total 54289.351179                       # average overall mshr miss latency
system.cpu.dcache.overall_avg_mshr_miss_latency::.switch_cpus.data 19259.328122                       # average overall mshr miss latency
system.cpu.dcache.overall_avg_mshr_miss_latency::.switch_cpus_1.data 55446.018543                       # average overall mshr miss latency
system.cpu.dcache.overall_avg_mshr_miss_latency::total 54289.351179                       # average overall mshr miss latency
system.cpu.dcache.replacements                2760174                       # number of replacements
system.cpu.dcache.ReadReq_hits::.cpu.data    221891067                       # number of ReadReq hits
system.cpu.dcache.ReadReq_hits::.switch_cpus.data     11075325                       # number of ReadReq hits
system.cpu.dcache.ReadReq_hits::.switch_cpus_1.data    221765842                       # number of ReadReq hits
system.cpu.dcache.ReadReq_hits::total       454732234                       # number of ReadReq hits
system.cpu.dcache.ReadReq_misses::.cpu.data       778085                       # number of ReadReq misses
system.cpu.dcache.ReadReq_misses::.switch_cpus.data        44443                       # number of ReadReq misses
system.cpu.dcache.ReadReq_misses::.switch_cpus_1.data      6444227                       # number of ReadReq misses
system.cpu.dcache.ReadReq_misses::total       7266755                       # number of ReadReq misses
system.cpu.dcache.ReadReq_miss_latency::.switch_cpus.data    630234000                       # number of ReadReq miss cycles
system.cpu.dcache.ReadReq_miss_latency::.switch_cpus_1.data 404532831500                       # number of ReadReq miss cycles
system.cpu.dcache.ReadReq_miss_latency::total 405163065500                       # number of ReadReq miss cycles
system.cpu.dcache.ReadReq_accesses::.cpu.data    222669152                       # number of ReadReq accesses(hits+misses)
system.cpu.dcache.ReadReq_accesses::.switch_cpus.data     11119768                       # number of ReadReq accesses(hits+misses)
system.cpu.dcache.ReadReq_accesses::.switch_cpus_1.data    228210069                       # number of ReadReq accesses(hits+misses)
system.cpu.dcache.ReadReq_accesses::total    461998989                       # number of ReadReq accesses(hits+misses)
system.cpu.dcache.ReadReq_miss_rate::.cpu.data     0.003494                       # miss rate for ReadReq accesses
system.cpu.dcache.ReadReq_miss_rate::.switch_cpus.data     0.003997                       # miss rate for ReadReq accesses
system.cpu.dcache.ReadReq_miss_rate::.switch_cpus_1.data     0.028238                       # miss rate for ReadReq accesses
system.cpu.dcache.ReadReq_miss_rate::total     0.015729                       # miss rate for ReadReq accesses
system.cpu.dcache.ReadReq_avg_miss_latency::.switch_cpus.data 14180.725874                       # average ReadReq miss latency
system.cpu.dcache.ReadReq_avg_miss_latency::.switch_cpus_1.data 62774.454019                       # average ReadReq miss latency
system.cpu.dcache.ReadReq_avg_miss_latency::total 55755.707396                       # average ReadReq miss latency
system.cpu.dcache.ReadReq_mshr_hits::.switch_cpus_1.data      5011870                       # number of ReadReq MSHR hits
system.cpu.dcache.ReadReq_mshr_hits::total      5011870                       # number of ReadReq MSHR hits
system.cpu.dcache.ReadReq_mshr_misses::.switch_cpus.data        44443                       # number of ReadReq MSHR misses
system.cpu.dcache.ReadReq_mshr_misses::.switch_cpus_1.data      1432357                       # number of ReadReq MSHR misses
system.cpu.dcache.ReadReq_mshr_misses::total      1476800                       # number of ReadReq MSHR misses
system.cpu.dcache.ReadReq_mshr_miss_latency::.switch_cpus.data    585791000                       # number of ReadReq MSHR miss cycles
system.cpu.dcache.ReadReq_mshr_miss_latency::.switch_cpus_1.data  79612228000                       # number of ReadReq MSHR miss cycles
system.cpu.dcache.ReadReq_mshr_miss_latency::total  80198019000                       # number of ReadReq MSHR miss cycles
system.cpu.dcache.ReadReq_mshr_miss_rate::.switch_cpus.data     0.003997                       # mshr miss rate for ReadReq accesses
system.cpu.dcache.ReadReq_mshr_miss_rate::.switch_cpus_1.data     0.006276                       # mshr miss rate for ReadReq accesses
system.cpu.dcache.ReadReq_mshr_miss_rate::total     0.003197                       # mshr miss rate for ReadReq accesses
system.cpu.dcache.ReadReq_avg_mshr_miss_latency::.switch_cpus.data 13180.725874                       # average ReadReq mshr miss latency
system.cpu.dcache.ReadReq_avg_mshr_miss_latency::.switch_cpus_1.data 55581.274780                       # average ReadReq mshr miss latency
system.cpu.dcache.ReadReq_avg_mshr_miss_latency::total 54305.267470                       # average ReadReq mshr miss latency
system.cpu.dcache.WriteReq_hits::.cpu.data    175549707                       # number of WriteReq hits
system.cpu.dcache.WriteReq_hits::.switch_cpus.data      8805804                       # number of WriteReq hits
system.cpu.dcache.WriteReq_hits::.switch_cpus_1.data    112673327                       # number of WriteReq hits
system.cpu.dcache.WriteReq_hits::total      297028838                       # number of WriteReq hits
system.cpu.dcache.WriteReq_misses::.cpu.data       249493                       # number of WriteReq misses
system.cpu.dcache.WriteReq_misses::.switch_cpus.data        10954                       # number of WriteReq misses
system.cpu.dcache.WriteReq_misses::.switch_cpus_1.data       249107                       # number of WriteReq misses
system.cpu.dcache.WriteReq_misses::total       509554                       # number of WriteReq misses
system.cpu.dcache.WriteReq_miss_latency::.switch_cpus.data    492072000                       # number of WriteReq miss cycles
system.cpu.dcache.WriteReq_miss_latency::.switch_cpus_1.data  13869805999                       # number of WriteReq miss cycles
system.cpu.dcache.WriteReq_miss_latency::total  14361877999                       # number of WriteReq miss cycles
system.cpu.dcache.WriteReq_accesses::.cpu.data    175799200                       # number of WriteReq accesses(hits+misses)
system.cpu.dcache.WriteReq_accesses::.switch_cpus.data      8816758                       # number of WriteReq accesses(hits+misses)
system.cpu.dcache.WriteReq_accesses::.switch_cpus_1.data    112922434                       # number of WriteReq accesses(hits+misses)
system.cpu.dcache.WriteReq_accesses::total    297538392                       # number of WriteReq accesses(hits+misses)
system.cpu.dcache.WriteReq_miss_rate::.cpu.data     0.001419                       # miss rate for WriteReq accesses
system.cpu.dcache.WriteReq_miss_rate::.switch_cpus.data     0.001242                       # miss rate for WriteReq accesses
system.cpu.dcache.WriteReq_miss_rate::.switch_cpus_1.data     0.002206                       # miss rate for WriteReq accesses
system.cpu.dcache.WriteReq_miss_rate::total     0.001713                       # miss rate for WriteReq accesses
system.cpu.dcache.WriteReq_avg_miss_latency::.switch_cpus.data 44921.672448                       # average WriteReq miss latency
system.cpu.dcache.WriteReq_avg_miss_latency::.switch_cpus_1.data 55678.106191                       # average WriteReq miss latency
system.cpu.dcache.WriteReq_avg_miss_latency::total 28185.193324                       # average WriteReq miss latency
system.cpu.dcache.WriteReq_mshr_hits::.switch_cpus_1.data         3749                       # number of WriteReq MSHR hits
system.cpu.dcache.WriteReq_mshr_hits::total         3749                       # number of WriteReq MSHR hits
system.cpu.dcache.WriteReq_mshr_misses::.switch_cpus.data        10954                       # number of WriteReq MSHR misses
system.cpu.dcache.WriteReq_mshr_misses::.switch_cpus_1.data       245358                       # number of WriteReq MSHR misses
system.cpu.dcache.WriteReq_mshr_misses::total       256312                       # number of WriteReq MSHR misses
system.cpu.dcache.WriteReq_mshr_miss_latency::.switch_cpus.data    481118000                       # number of WriteReq MSHR miss cycles
system.cpu.dcache.WriteReq_mshr_miss_latency::.switch_cpus_1.data  13410389000                       # number of WriteReq MSHR miss cycles
system.cpu.dcache.WriteReq_mshr_miss_latency::total  13891507000                       # number of WriteReq MSHR miss cycles
system.cpu.dcache.WriteReq_mshr_miss_rate::.switch_cpus.data     0.001242                       # mshr miss rate for WriteReq accesses
system.cpu.dcache.WriteReq_mshr_miss_rate::.switch_cpus_1.data     0.002173                       # mshr miss rate for WriteReq accesses
system.cpu.dcache.WriteReq_mshr_miss_rate::total     0.000861                       # mshr miss rate for WriteReq accesses
system.cpu.dcache.WriteReq_avg_mshr_miss_latency::.switch_cpus.data 43921.672448                       # average WriteReq mshr miss latency
system.cpu.dcache.WriteReq_avg_mshr_miss_latency::.switch_cpus_1.data 54656.416339                       # average WriteReq mshr miss latency
system.cpu.dcache.WriteReq_avg_mshr_miss_latency::total 54197.645838                       # average WriteReq mshr miss latency
system.cpu.dcache.power_state.pwrStateResidencyTicks::UNDEFINED 1672263164000                       # Cumulative time (in ticks) in various power states
system.cpu.dcache.tags.tagsinuse           511.995188                       # Cycle average of tags in use
system.cpu.dcache.tags.total_refs           754521762                       # Total number of references to valid blocks.
system.cpu.dcache.tags.sampled_refs           2760686                       # Sample count of references to valid blocks.
system.cpu.dcache.tags.avg_refs            273.309519                       # Average number of references to valid blocks.
system.cpu.dcache.tags.warmup_cycle              1500                       # Cycle when the warmup percentage was hit.
system.cpu.dcache.tags.occ_blocks::.cpu.data   361.532499                       # Average occupied blocks per requestor
system.cpu.dcache.tags.occ_blocks::.switch_cpus.data    25.666749                       # Average occupied blocks per requestor
system.cpu.dcache.tags.occ_blocks::.switch_cpus_1.data   124.795940                       # Average occupied blocks per requestor
system.cpu.dcache.tags.occ_percent::.cpu.data     0.706118                       # Average percentage of cache occupancy
system.cpu.dcache.tags.occ_percent::.switch_cpus.data     0.050130                       # Average percentage of cache occupancy
system.cpu.dcache.tags.occ_percent::.switch_cpus_1.data     0.243742                       # Average percentage of cache occupancy
system.cpu.dcache.tags.occ_percent::total     0.999991                       # Average percentage of cache occupancy
system.cpu.dcache.tags.occ_task_id_blocks::1024          512                       # Occupied blocks per task id
system.cpu.dcache.tags.age_task_id_blocks_1024::0            1                       # Occupied blocks per task id
system.cpu.dcache.tags.age_task_id_blocks_1024::1            9                       # Occupied blocks per task id
system.cpu.dcache.tags.age_task_id_blocks_1024::2           97                       # Occupied blocks per task id
system.cpu.dcache.tags.age_task_id_blocks_1024::3          250                       # Occupied blocks per task id
system.cpu.dcache.tags.age_task_id_blocks_1024::4          155                       # Occupied blocks per task id
system.cpu.dcache.tags.occ_task_id_percent::1024            1                       # Percentage of cache occupancy per task id
system.cpu.dcache.tags.tag_accesses        1521835448                       # Number of tag accesses
system.cpu.dcache.tags.data_accesses       1521835448                       # Number of data accesses
system.cpu.dcache.tags.power_state.pwrStateResidencyTicks::UNDEFINED 1672263164000                       # Cumulative time (in ticks) in various power states
system.cpu.power_state.numTransitions               2                       # Number of power state transitions
system.cpu.power_state.pwrStateResidencyTicks::ON 1169538795500                       # Cumulative time (in ticks) in various power states
system.cpu.power_state.pwrStateResidencyTicks::OFF 502724368500                       # Cumulative time (in ticks) in various power states

---------- End Simulation Statistics   ----------
