
---------- Begin Simulation Statistics ----------
final_tick                                74591094500                       # Number of ticks from beginning of simulation (restored from checkpoints and never reset)
host_inst_rate                                 113774                       # Simulator instruction rate (inst/s)
host_mem_usage                                 855016                       # Number of bytes of host memory used
host_op_rate                                   127892                       # Simulator op (including micro ops) rate (op/s)
host_seconds                                  1757.87                       # Real time elapsed on the host
host_tick_rate                               42432581                       # Simulator tick rate (ticks/s)
sim_freq                                 1000000000000                       # Frequency of simulated ticks
sim_insts                                   200000000                       # Number of instructions simulated
sim_ops                                     224817966                       # Number of ops (including micro ops) simulated
sim_seconds                                  0.074591                       # Number of seconds simulated
sim_ticks                                 74591094500                       # Number of ticks simulated
system.cpu.branchPred.BTBCorrect                    0                       # Number of correct BTB predictions (this stat may not work properly.
system.cpu.branchPred.BTBHitPct             99.992099                       # BTB Hit Percentage
system.cpu.branchPred.BTBHits                19325490                       # Number of BTB hits
system.cpu.branchPred.BTBLookups             19327017                       # Number of BTB lookups
system.cpu.branchPred.RASInCorrect                  4                       # Number of incorrect RAS predictions.
system.cpu.branchPred.condIncorrect             36090                       # Number of conditional branches incorrect
system.cpu.branchPred.condPredicted          37362385                       # Number of conditional branches predicted
system.cpu.branchPred.indirectHits             582983                       # Number of indirect target hits.
system.cpu.branchPred.indirectLookups          583314                       # Number of indirect predictor lookups.
system.cpu.branchPred.indirectMisses              331                       # Number of indirect misses.
system.cpu.branchPred.lookups                46298918                       # Number of BP lookups
system.cpu.branchPred.loop_predictor.loopPredictorCorrect            0                       # Number of times the loop predictor is the provider and the prediction is correct
system.cpu.branchPred.loop_predictor.loopPredictorWrong            0                       # Number of times the loop predictor is the provider and the prediction is wrong
system.cpu.branchPred.statistical_corrector.scPredictorCorrect        30348                       # Number of time the SC predictor is the provider and the prediction is correct
system.cpu.branchPred.statistical_corrector.scPredictorWrong         6040                       # Number of time the SC predictor is the provider and the prediction is wrong
system.cpu.branchPred.tage.bimodalAltMatchProviderCorrect          146                       # Number of times TAGE Alt Match is the bimodal and it is the provider and the prediction is correct
system.cpu.branchPred.tage.bimodalAltMatchProviderWrong           21                       # Number of times TAGE Alt Match is the bimodal and it is the provider and the prediction is wrong
system.cpu.branchPred.tage.tageAltMatchProvider::0      1596481                       # TAGE provider for alt match
system.cpu.branchPred.tage.tageAltMatchProvider::1            0                       # TAGE provider for alt match
system.cpu.branchPred.tage.tageAltMatchProvider::2       940840                       # TAGE provider for alt match
system.cpu.branchPred.tage.tageAltMatchProvider::3            0                       # TAGE provider for alt match
system.cpu.branchPred.tage.tageAltMatchProvider::4        84768                       # TAGE provider for alt match
system.cpu.branchPred.tage.tageAltMatchProvider::5            0                       # TAGE provider for alt match
system.cpu.branchPred.tage.tageAltMatchProvider::6         2472                       # TAGE provider for alt match
system.cpu.branchPred.tage.tageAltMatchProvider::7      1241060                       # TAGE provider for alt match
system.cpu.branchPred.tage.tageAltMatchProvider::8        31373                       # TAGE provider for alt match
system.cpu.branchPred.tage.tageAltMatchProvider::9         8625                       # TAGE provider for alt match
system.cpu.branchPred.tage.tageAltMatchProvider::10       180747                       # TAGE provider for alt match
system.cpu.branchPred.tage.tageAltMatchProvider::11       174098                       # TAGE provider for alt match
system.cpu.branchPred.tage.tageAltMatchProvider::12       138758                       # TAGE provider for alt match
system.cpu.branchPred.tage.tageAltMatchProvider::13       157126                       # TAGE provider for alt match
system.cpu.branchPred.tage.tageAltMatchProvider::14       124359                       # TAGE provider for alt match
system.cpu.branchPred.tage.tageAltMatchProvider::15       244099                       # TAGE provider for alt match
system.cpu.branchPred.tage.tageAltMatchProvider::16       182997                       # TAGE provider for alt match
system.cpu.branchPred.tage.tageAltMatchProvider::17       177054                       # TAGE provider for alt match
system.cpu.branchPred.tage.tageAltMatchProvider::18       110916                       # TAGE provider for alt match
system.cpu.branchPred.tage.tageAltMatchProvider::19       126929                       # TAGE provider for alt match
system.cpu.branchPred.tage.tageAltMatchProvider::20       168146                       # TAGE provider for alt match
system.cpu.branchPred.tage.tageAltMatchProvider::21            0                       # TAGE provider for alt match
system.cpu.branchPred.tage.tageAltMatchProvider::22       323693                       # TAGE provider for alt match
system.cpu.branchPred.tage.tageAltMatchProvider::23            0                       # TAGE provider for alt match
system.cpu.branchPred.tage.tageAltMatchProvider::24       317706                       # TAGE provider for alt match
system.cpu.branchPred.tage.tageAltMatchProvider::25            0                       # TAGE provider for alt match
system.cpu.branchPred.tage.tageAltMatchProvider::26       244102                       # TAGE provider for alt match
system.cpu.branchPred.tage.tageAltMatchProvider::27            0                       # TAGE provider for alt match
system.cpu.branchPred.tage.tageAltMatchProvider::28       256584                       # TAGE provider for alt match
system.cpu.branchPred.tage.tageAltMatchProvider::29            0                       # TAGE provider for alt match
system.cpu.branchPred.tage.tageAltMatchProvider::30            0                       # TAGE provider for alt match
system.cpu.branchPred.tage.tageAltMatchProviderCorrect         4691                       # Number of times TAGE Alt Match is the provider and the prediction is correct
system.cpu.branchPred.tage.tageAltMatchProviderWouldHaveHit        10820                       # Number of times TAGE Longest Match is the provider, the prediction is wrong and Alt Match prediction was correct
system.cpu.branchPred.tage.tageAltMatchProviderWrong         1414                       # Number of times TAGE Alt Match is the provider and the prediction is wrong
system.cpu.branchPred.tage.tageBimodalProviderCorrect     30241893                       # Number of times there are no hits on the TAGE tables and the bimodal prediction is correct
system.cpu.branchPred.tage.tageBimodalProviderWrong          461                       # Number of times there are no hits on the TAGE tables and the bimodal prediction is wrong
system.cpu.branchPred.tage.tageLongestMatchProvider::0            0                       # TAGE provider for longest match
system.cpu.branchPred.tage.tageLongestMatchProvider::1            0                       # TAGE provider for longest match
system.cpu.branchPred.tage.tageLongestMatchProvider::2       428517                       # TAGE provider for longest match
system.cpu.branchPred.tage.tageLongestMatchProvider::3            0                       # TAGE provider for longest match
system.cpu.branchPred.tage.tageLongestMatchProvider::4        96644                       # TAGE provider for longest match
system.cpu.branchPred.tage.tageLongestMatchProvider::5            0                       # TAGE provider for longest match
system.cpu.branchPred.tage.tageLongestMatchProvider::6       810087                       # TAGE provider for longest match
system.cpu.branchPred.tage.tageLongestMatchProvider::7       252003                       # TAGE provider for longest match
system.cpu.branchPred.tage.tageLongestMatchProvider::8       313526                       # TAGE provider for longest match
system.cpu.branchPred.tage.tageLongestMatchProvider::9       388795                       # TAGE provider for longest match
system.cpu.branchPred.tage.tageLongestMatchProvider::10      1508926                       # TAGE provider for longest match
system.cpu.branchPred.tage.tageLongestMatchProvider::11        39901                       # TAGE provider for longest match
system.cpu.branchPred.tage.tageLongestMatchProvider::12          637                       # TAGE provider for longest match
system.cpu.branchPred.tage.tageLongestMatchProvider::13         2276                       # TAGE provider for longest match
system.cpu.branchPred.tage.tageLongestMatchProvider::14       106537                       # TAGE provider for longest match
system.cpu.branchPred.tage.tageLongestMatchProvider::15       242076                       # TAGE provider for longest match
system.cpu.branchPred.tage.tageLongestMatchProvider::16       350122                       # TAGE provider for longest match
system.cpu.branchPred.tage.tageLongestMatchProvider::17       208415                       # TAGE provider for longest match
system.cpu.branchPred.tage.tageLongestMatchProvider::18       127004                       # TAGE provider for longest match
system.cpu.branchPred.tage.tageLongestMatchProvider::19       219517                       # TAGE provider for longest match
system.cpu.branchPred.tage.tageLongestMatchProvider::20        94005                       # TAGE provider for longest match
system.cpu.branchPred.tage.tageLongestMatchProvider::21            0                       # TAGE provider for longest match
system.cpu.branchPred.tage.tageLongestMatchProvider::22       150987                       # TAGE provider for longest match
system.cpu.branchPred.tage.tageLongestMatchProvider::23            0                       # TAGE provider for longest match
system.cpu.branchPred.tage.tageLongestMatchProvider::24       413834                       # TAGE provider for longest match
system.cpu.branchPred.tage.tageLongestMatchProvider::25            0                       # TAGE provider for longest match
system.cpu.branchPred.tage.tageLongestMatchProvider::26       316027                       # TAGE provider for longest match
system.cpu.branchPred.tage.tageLongestMatchProvider::27            0                       # TAGE provider for longest match
system.cpu.branchPred.tage.tageLongestMatchProvider::28       287782                       # TAGE provider for longest match
system.cpu.branchPred.tage.tageLongestMatchProvider::29            0                       # TAGE provider for longest match
system.cpu.branchPred.tage.tageLongestMatchProvider::30       475315                       # TAGE provider for longest match
system.cpu.branchPred.tage.tageLongestMatchProviderCorrect      6799308                       # Number of times TAGE Longest Match is the provider and the prediction is correct
system.cpu.branchPred.tage.tageLongestMatchProviderWouldHaveHit          531                       # Number of times TAGE Alt Match is the provider, the prediction is wrong and Longest Match prediction was correct
system.cpu.branchPred.tage.tageLongestMatchProviderWrong        27520                       # Number of times TAGE Longest Match is the provider and the prediction is wrong
system.cpu.branchPred.usedRAS                 2070511                       # Number of times the RAS was used to get a target.
system.cpu.branchPred.wormholepredictor.whPredictorCorrect           12                       # Number of time the WH predictor is the provider and the prediction is correct
system.cpu.branchPred.wormholepredictor.whPredictorWrong            0                       # Number of time the WH predictor is the provider and the prediction is wrong
system.cpu.branchPredindirectMispredicted           85                       # Number of mispredicted indirect branches.
system.cpu.cc_regfile_reads                  96694155                       # number of cc regfile reads
system.cpu.cc_regfile_writes                 92003817                       # number of cc regfile writes
system.cpu.commit.amos                              0                       # Number of atomic instructions committed
system.cpu.commit.branchMispredicts             35659                       # The number of times a branch was mispredicted
system.cpu.commit.branches                   45955330                       # Number of branches committed
system.cpu.commit.bw_lim_events              11780229                       # number cycles where commit BW limit reached
system.cpu.commit.commitNonSpecStalls          200088                       # The number of times commit has been forced to stall to communicate backwards
system.cpu.commit.commitSquashedInsts         1341874                       # The number of squashed insts skipped by commit
system.cpu.commit.committedInsts            200099952                       # Number of instructions committed
system.cpu.commit.committedOps              224917918                       # Number of ops (including micro ops) committed
system.cpu.commit.committed_per_cycle::samples    145186809                       # Number of insts commited each cycle
system.cpu.commit.committed_per_cycle::mean     1.549162                       # Number of insts commited each cycle
system.cpu.commit.committed_per_cycle::stdev     2.463905                       # Number of insts commited each cycle
system.cpu.commit.committed_per_cycle::underflows            0      0.00%      0.00% # Number of insts commited each cycle
system.cpu.commit.committed_per_cycle::0     78963823     54.39%     54.39% # Number of insts commited each cycle
system.cpu.commit.committed_per_cycle::1     22853910     15.74%     70.13% # Number of insts commited each cycle
system.cpu.commit.committed_per_cycle::2     13085785      9.01%     79.14% # Number of insts commited each cycle
system.cpu.commit.committed_per_cycle::3      7059495      4.86%     84.00% # Number of insts commited each cycle
system.cpu.commit.committed_per_cycle::4      4719922      3.25%     87.26% # Number of insts commited each cycle
system.cpu.commit.committed_per_cycle::5      1671940      1.15%     88.41% # Number of insts commited each cycle
system.cpu.commit.committed_per_cycle::6      2129202      1.47%     89.87% # Number of insts commited each cycle
system.cpu.commit.committed_per_cycle::7      2922503      2.01%     91.89% # Number of insts commited each cycle
system.cpu.commit.committed_per_cycle::8     11780229      8.11%    100.00% # Number of insts commited each cycle
system.cpu.commit.committed_per_cycle::overflows            0      0.00%    100.00% # Number of insts commited each cycle
system.cpu.commit.committed_per_cycle::min_value            0                       # Number of insts commited each cycle
system.cpu.commit.committed_per_cycle::max_value            8                       # Number of insts commited each cycle
system.cpu.commit.committed_per_cycle::total    145186809                       # Number of insts commited each cycle
system.cpu.commit.fp_insts                          0                       # Number of committed floating point instructions.
system.cpu.commit.function_calls              2024312                       # Number of function calls committed.
system.cpu.commit.int_insts                 194008026                       # Number of committed integer instructions.
system.cpu.commit.loads                      35113161                       # Number of loads committed
system.cpu.commit.membars                      199892                       # Number of memory barriers committed
system.cpu.commit.op_class_0::No_OpClass       144306      0.06%      0.06% # Class of committed instruction
system.cpu.commit.op_class_0::IntAlu        154876777     68.86%     68.92% # Class of committed instruction
system.cpu.commit.op_class_0::IntMult         1219655      0.54%     69.47% # Class of committed instruction
system.cpu.commit.op_class_0::IntDiv                3      0.00%     69.47% # Class of committed instruction
system.cpu.commit.op_class_0::FloatAdd              0      0.00%     69.47% # Class of committed instruction
system.cpu.commit.op_class_0::FloatCmp              0      0.00%     69.47% # Class of committed instruction
system.cpu.commit.op_class_0::FloatCvt              0      0.00%     69.47% # Class of committed instruction
system.cpu.commit.op_class_0::FloatMult             0      0.00%     69.47% # Class of committed instruction
system.cpu.commit.op_class_0::FloatMultAcc            0      0.00%     69.47% # Class of committed instruction
system.cpu.commit.op_class_0::FloatDiv              0      0.00%     69.47% # Class of committed instruction
system.cpu.commit.op_class_0::FloatMisc             0      0.00%     69.47% # Class of committed instruction
system.cpu.commit.op_class_0::FloatSqrt             0      0.00%     69.47% # Class of committed instruction
system.cpu.commit.op_class_0::SimdAdd          334955      0.15%     69.61% # Class of committed instruction
system.cpu.commit.op_class_0::SimdAddAcc            0      0.00%     69.61% # Class of committed instruction
system.cpu.commit.op_class_0::SimdAlu          334953      0.15%     69.76% # Class of committed instruction
system.cpu.commit.op_class_0::SimdCmp          288620      0.13%     69.89% # Class of committed instruction
system.cpu.commit.op_class_0::SimdCvt               0      0.00%     69.89% # Class of committed instruction
system.cpu.commit.op_class_0::SimdMisc         390803      0.17%     70.07% # Class of committed instruction
system.cpu.commit.op_class_0::SimdMult              0      0.00%     70.07% # Class of committed instruction
system.cpu.commit.op_class_0::SimdMultAcc            0      0.00%     70.07% # Class of committed instruction
system.cpu.commit.op_class_0::SimdShift             0      0.00%     70.07% # Class of committed instruction
system.cpu.commit.op_class_0::SimdShiftAcc            0      0.00%     70.07% # Class of committed instruction
system.cpu.commit.op_class_0::SimdDiv               0      0.00%     70.07% # Class of committed instruction
system.cpu.commit.op_class_0::SimdSqrt              0      0.00%     70.07% # Class of committed instruction
system.cpu.commit.op_class_0::SimdFloatAdd            0      0.00%     70.07% # Class of committed instruction
system.cpu.commit.op_class_0::SimdFloatAlu            0      0.00%     70.07% # Class of committed instruction
system.cpu.commit.op_class_0::SimdFloatCmp            0      0.00%     70.07% # Class of committed instruction
system.cpu.commit.op_class_0::SimdFloatCvt            0      0.00%     70.07% # Class of committed instruction
system.cpu.commit.op_class_0::SimdFloatDiv            0      0.00%     70.07% # Class of committed instruction
system.cpu.commit.op_class_0::SimdFloatMisc            0      0.00%     70.07% # Class of committed instruction
system.cpu.commit.op_class_0::SimdFloatMult            0      0.00%     70.07% # Class of committed instruction
system.cpu.commit.op_class_0::SimdFloatMultAcc            0      0.00%     70.07% # Class of committed instruction
system.cpu.commit.op_class_0::SimdFloatSqrt            0      0.00%     70.07% # Class of committed instruction
system.cpu.commit.op_class_0::SimdReduceAdd            0      0.00%     70.07% # Class of committed instruction
system.cpu.commit.op_class_0::SimdReduceAlu            0      0.00%     70.07% # Class of committed instruction
system.cpu.commit.op_class_0::SimdReduceCmp            0      0.00%     70.07% # Class of committed instruction
system.cpu.commit.op_class_0::SimdFloatReduceAdd            0      0.00%     70.07% # Class of committed instruction
system.cpu.commit.op_class_0::SimdFloatReduceCmp            0      0.00%     70.07% # Class of committed instruction
system.cpu.commit.op_class_0::SimdAes               0      0.00%     70.07% # Class of committed instruction
system.cpu.commit.op_class_0::SimdAesMix            0      0.00%     70.07% # Class of committed instruction
system.cpu.commit.op_class_0::SimdSha1Hash            0      0.00%     70.07% # Class of committed instruction
system.cpu.commit.op_class_0::SimdSha1Hash2            0      0.00%     70.07% # Class of committed instruction
system.cpu.commit.op_class_0::SimdSha256Hash            0      0.00%     70.07% # Class of committed instruction
system.cpu.commit.op_class_0::SimdSha256Hash2            0      0.00%     70.07% # Class of committed instruction
system.cpu.commit.op_class_0::SimdShaSigma2            0      0.00%     70.07% # Class of committed instruction
system.cpu.commit.op_class_0::SimdShaSigma3            0      0.00%     70.07% # Class of committed instruction
system.cpu.commit.op_class_0::SimdPredAlu            0      0.00%     70.07% # Class of committed instruction
system.cpu.commit.op_class_0::MemRead        35113161     15.61%     85.68% # Class of committed instruction
system.cpu.commit.op_class_0::MemWrite       32214685     14.32%    100.00% # Class of committed instruction
system.cpu.commit.op_class_0::FloatMemRead            0      0.00%    100.00% # Class of committed instruction
system.cpu.commit.op_class_0::FloatMemWrite            0      0.00%    100.00% # Class of committed instruction
system.cpu.commit.op_class_0::IprAccess             0      0.00%    100.00% # Class of committed instruction
system.cpu.commit.op_class_0::InstPrefetch            0      0.00%    100.00% # Class of committed instruction
system.cpu.commit.op_class_0::total         224917918                       # Class of committed instruction
system.cpu.commit.refs                       67327846                       # Number of memory references committed
system.cpu.commit.swp_count                         0                       # Number of s/w prefetches committed
system.cpu.commit.vec_insts                   3381217                       # Number of committed Vector instructions.
system.cpu.committedInsts                   200000000                       # Number of Instructions Simulated
system.cpu.committedOps                     224817966                       # Number of Ops (including micro ops) Simulated
system.cpu.cpi                               0.745911                       # CPI: Cycles Per Instruction
system.cpu.cpi_total                         0.745911                       # CPI: Total CPI of All Threads
system.cpu.decode.BlockedCycles              43603189                       # Number of cycles decode is blocked
system.cpu.decode.BranchMispred                   435                       # Number of times decode detected a branch misprediction
system.cpu.decode.BranchResolved             19309829                       # Number of times decode resolved a branch
system.cpu.decode.DecodedInsts              226554153                       # Number of instructions handled by decode
system.cpu.decode.IdleCycles                 59201567                       # Number of cycles decode is idle
system.cpu.decode.RunCycles                  39657668                       # Number of cycles decode is running
system.cpu.decode.SquashCycles                  41097                       # Number of cycles decode is squashing
system.cpu.decode.SquashedInsts                   932                       # Number of squashed instructions handled by decode
system.cpu.decode.UnblockCycles               2873361                       # Number of cycles decode is unblocking
system.cpu.dtb.accesses                             0                       # DTB accesses
system.cpu.dtb.align_faults                         0                       # Number of TLB faults due to alignment restrictions
system.cpu.dtb.domain_faults                        0                       # Number of TLB faults due to domain restrictions
system.cpu.dtb.flush_entries                        0                       # Number of entries that have been flushed from TLB
system.cpu.dtb.flush_tlb                            0                       # Number of times complete TLB was flushed
system.cpu.dtb.flush_tlb_asid                       0                       # Number of times TLB was flushed by ASID
system.cpu.dtb.flush_tlb_mva                        0                       # Number of times TLB was flushed by MVA
system.cpu.dtb.flush_tlb_mva_asid                   0                       # Number of times TLB was flushed by MVA & ASID
system.cpu.dtb.hits                                 0                       # DTB hits
system.cpu.dtb.inst_accesses                        0                       # ITB inst accesses
system.cpu.dtb.inst_hits                            0                       # ITB inst hits
system.cpu.dtb.inst_misses                          0                       # ITB inst misses
system.cpu.dtb.misses                               0                       # DTB misses
system.cpu.dtb.perms_faults                         0                       # Number of TLB faults due to permissions restrictions
system.cpu.dtb.prefetch_faults                      0                       # Number of TLB faults due to prefetch
system.cpu.dtb.read_accesses                        0                       # DTB read accesses
system.cpu.dtb.read_hits                            0                       # DTB read hits
system.cpu.dtb.read_misses                          0                       # DTB read misses
system.cpu.dtb.stage2_mmu.stage2_tlb.accesses            0                       # DTB accesses
system.cpu.dtb.stage2_mmu.stage2_tlb.align_faults            0                       # Number of TLB faults due to alignment restrictions
system.cpu.dtb.stage2_mmu.stage2_tlb.domain_faults            0                       # Number of TLB faults due to domain restrictions
system.cpu.dtb.stage2_mmu.stage2_tlb.flush_entries            0                       # Number of entries that have been flushed from TLB
system.cpu.dtb.stage2_mmu.stage2_tlb.flush_tlb            0                       # Number of times complete TLB was flushed
system.cpu.dtb.stage2_mmu.stage2_tlb.flush_tlb_asid            0                       # Number of times TLB was flushed by ASID
system.cpu.dtb.stage2_mmu.stage2_tlb.flush_tlb_mva            0                       # Number of times TLB was flushed by MVA
system.cpu.dtb.stage2_mmu.stage2_tlb.flush_tlb_mva_asid            0                       # Number of times TLB was flushed by MVA & ASID
system.cpu.dtb.stage2_mmu.stage2_tlb.hits            0                       # DTB hits
system.cpu.dtb.stage2_mmu.stage2_tlb.inst_accesses            0                       # ITB inst accesses
system.cpu.dtb.stage2_mmu.stage2_tlb.inst_hits            0                       # ITB inst hits
system.cpu.dtb.stage2_mmu.stage2_tlb.inst_misses            0                       # ITB inst misses
system.cpu.dtb.stage2_mmu.stage2_tlb.misses            0                       # DTB misses
system.cpu.dtb.stage2_mmu.stage2_tlb.perms_faults            0                       # Number of TLB faults due to permissions restrictions
system.cpu.dtb.stage2_mmu.stage2_tlb.prefetch_faults            0                       # Number of TLB faults due to prefetch
system.cpu.dtb.stage2_mmu.stage2_tlb.read_accesses            0                       # DTB read accesses
system.cpu.dtb.stage2_mmu.stage2_tlb.read_hits            0                       # DTB read hits
system.cpu.dtb.stage2_mmu.stage2_tlb.read_misses            0                       # DTB read misses
system.cpu.dtb.stage2_mmu.stage2_tlb.walker.walkRequestOrigin_Requested::Data            0                       # Table walker requests started/completed, data/inst
system.cpu.dtb.stage2_mmu.stage2_tlb.walker.walkRequestOrigin_Requested::Inst            0                       # Table walker requests started/completed, data/inst
system.cpu.dtb.stage2_mmu.stage2_tlb.walker.walkRequestOrigin_Requested::total            0                       # Table walker requests started/completed, data/inst
system.cpu.dtb.stage2_mmu.stage2_tlb.walker.walkRequestOrigin_Completed::Data            0                       # Table walker requests started/completed, data/inst
system.cpu.dtb.stage2_mmu.stage2_tlb.walker.walkRequestOrigin_Completed::Inst            0                       # Table walker requests started/completed, data/inst
system.cpu.dtb.stage2_mmu.stage2_tlb.walker.walkRequestOrigin_Completed::total            0                       # Table walker requests started/completed, data/inst
system.cpu.dtb.stage2_mmu.stage2_tlb.walker.walkRequestOrigin::total            0                       # Table walker requests started/completed, data/inst
system.cpu.dtb.stage2_mmu.stage2_tlb.walker.walks            0                       # Table walker walks requested
system.cpu.dtb.stage2_mmu.stage2_tlb.write_accesses            0                       # DTB write accesses
system.cpu.dtb.stage2_mmu.stage2_tlb.write_hits            0                       # DTB write hits
system.cpu.dtb.stage2_mmu.stage2_tlb.write_misses            0                       # DTB write misses
system.cpu.dtb.walker.walkRequestOrigin_Requested::Data            0                       # Table walker requests started/completed, data/inst
system.cpu.dtb.walker.walkRequestOrigin_Requested::Inst            0                       # Table walker requests started/completed, data/inst
system.cpu.dtb.walker.walkRequestOrigin_Requested::total            0                       # Table walker requests started/completed, data/inst
system.cpu.dtb.walker.walkRequestOrigin_Completed::Data            0                       # Table walker requests started/completed, data/inst
system.cpu.dtb.walker.walkRequestOrigin_Completed::Inst            0                       # Table walker requests started/completed, data/inst
system.cpu.dtb.walker.walkRequestOrigin_Completed::total            0                       # Table walker requests started/completed, data/inst
system.cpu.dtb.walker.walkRequestOrigin::total            0                       # Table walker requests started/completed, data/inst
system.cpu.dtb.walker.walks                         0                       # Table walker walks requested
system.cpu.dtb.write_accesses                       0                       # DTB write accesses
system.cpu.dtb.write_hits                           0                       # DTB write hits
system.cpu.dtb.write_misses                         0                       # DTB write misses
system.cpu.fetch.Branches                    46298918                       # Number of branches that fetch encountered
system.cpu.fetch.CacheLines                  30541071                       # Number of cache lines fetched
system.cpu.fetch.Cycles                      72354469                       # Number of cycles fetch has run and was not squashing or blocked
system.cpu.fetch.IcacheSquashes                 21715                       # Number of outstanding Icache misses that were squashed
system.cpu.fetch.IcacheWaitRetryStallCycles           49                       # Number of stall cycles due to full MSHR
system.cpu.fetch.Insts                      201698139                       # Number of instructions fetch has processed
system.cpu.fetch.MiscStallCycles                    3                       # Number of cycles fetch has spent waiting on interrupts, or bad addresses, or out of MSHRs
system.cpu.fetch.SquashCycles                   83056                       # Number of cycles fetch has spent squashing
system.cpu.fetch.branchRate                  0.310352                       # Number of branch fetches per cycle
system.cpu.fetch.icacheStallCycles           72980833                       # Number of cycles fetch is stalled on an Icache miss
system.cpu.fetch.predictedBranches           21978984                       # Number of branches that fetch has predicted taken
system.cpu.fetch.rate                        1.352026                       # Number of inst fetches per cycle
system.cpu.fetch.rateDist::samples          145376882                       # Number of instructions fetched each cycle (Total)
system.cpu.fetch.rateDist::mean              1.559853                       # Number of instructions fetched each cycle (Total)
system.cpu.fetch.rateDist::stdev             2.715858                       # Number of instructions fetched each cycle (Total)
system.cpu.fetch.rateDist::underflows               0      0.00%      0.00% # Number of instructions fetched each cycle (Total)
system.cpu.fetch.rateDist::0                 99876826     68.70%     68.70% # Number of instructions fetched each cycle (Total)
system.cpu.fetch.rateDist::1                  4929643      3.39%     72.09% # Number of instructions fetched each cycle (Total)
system.cpu.fetch.rateDist::2                  4291087      2.95%     75.04% # Number of instructions fetched each cycle (Total)
system.cpu.fetch.rateDist::3                  5923787      4.07%     79.12% # Number of instructions fetched each cycle (Total)
system.cpu.fetch.rateDist::4                  7522497      5.17%     84.29% # Number of instructions fetched each cycle (Total)
system.cpu.fetch.rateDist::5                  4222618      2.90%     87.20% # Number of instructions fetched each cycle (Total)
system.cpu.fetch.rateDist::6                  1325835      0.91%     88.11% # Number of instructions fetched each cycle (Total)
system.cpu.fetch.rateDist::7                  1951423      1.34%     89.45% # Number of instructions fetched each cycle (Total)
system.cpu.fetch.rateDist::8                 15333166     10.55%    100.00% # Number of instructions fetched each cycle (Total)
system.cpu.fetch.rateDist::overflows                0      0.00%    100.00% # Number of instructions fetched each cycle (Total)
system.cpu.fetch.rateDist::min_value                0                       # Number of instructions fetched each cycle (Total)
system.cpu.fetch.rateDist::max_value                8                       # Number of instructions fetched each cycle (Total)
system.cpu.fetch.rateDist::total            145376882                       # Number of instructions fetched each cycle (Total)
system.cpu.idleCycles                         3805308                       # Total number of cycles that the CPU has spent unscheduled due to idling
system.cpu.iew.branchMispredicts                35904                       # Number of branch mispredicts detected at execute
system.cpu.iew.exec_branches                 46110839                       # Number of branches executed
system.cpu.iew.exec_nop                         99985                       # number of nop insts executed
system.cpu.iew.exec_rate                     1.550515                       # Inst execution rate
system.cpu.iew.exec_refs                     73183627                       # number of memory reference insts executed
system.cpu.iew.exec_stores                   32341769                       # Number of stores executed
system.cpu.iew.exec_swp                             0                       # number of swp insts executed
system.cpu.iew.iewBlockCycles                  717731                       # Number of cycles IEW is blocking
system.cpu.iew.iewDispLoadInsts              35322670                       # Number of dispatched load instructions
system.cpu.iew.iewDispNonSpecInsts             200251                       # Number of dispatched non-speculative instructions
system.cpu.iew.iewDispSquashedInsts              1371                       # Number of squashed instructions skipped by dispatch
system.cpu.iew.iewDispStoreInsts             32402203                       # Number of dispatched store instructions
system.cpu.iew.iewDispatchedInsts           226295220                       # Number of instructions dispatched to IQ
system.cpu.iew.iewExecLoadInsts              40841858                       # Number of load instructions executed
system.cpu.iew.iewExecSquashedInsts             69960                       # Number of squashed instructions skipped in execute
system.cpu.iew.iewExecutedInsts             231309197                       # Number of executed instructions
system.cpu.iew.iewIQFullEvents                 232820                       # Number of times the IQ has become full, causing a stall
system.cpu.iew.iewIdleCycles                        0                       # Number of cycles IEW is idle
system.cpu.iew.iewLSQFullEvents                117107                       # Number of times the LSQ has become full, causing a stall
system.cpu.iew.iewSquashCycles                  41097                       # Number of cycles IEW is squashing
system.cpu.iew.iewUnblockCycles                354437                       # Number of cycles IEW is unblocking
system.cpu.iew.lsq.thread0.blockedLoads             0                       # Number of blocked loads due to partial load-store forwarding
system.cpu.iew.lsq.thread0.cacheBlocked         55016                       # Number of times an access to memory failed due to the cache being blocked
system.cpu.iew.lsq.thread0.forwLoads          2517391                       # Number of loads that had data forwarded from stores
system.cpu.iew.lsq.thread0.ignoredResponses          109                       # Number of memory responses ignored because the instruction is squashed
system.cpu.iew.lsq.thread0.invAddrLoads             0                       # Number of loads ignored due to an invalid address
system.cpu.iew.lsq.thread0.invAddrSwpfs             0                       # Number of software prefetches ignored due to an invalid address
system.cpu.iew.lsq.thread0.memOrderViolation         1629                       # Number of memory ordering violations
system.cpu.iew.lsq.thread0.rescheduledLoads      2970008                       # Number of loads that were rescheduled
system.cpu.iew.lsq.thread0.squashedLoads       209501                       # Number of loads squashed
system.cpu.iew.lsq.thread0.squashedStores       187513                       # Number of stores squashed
system.cpu.iew.memOrderViolationEvents           1629                       # Number of memory order violations
system.cpu.iew.predictedNotTakenIncorrect        22313                       # Number of branches that were predicted not taken incorrectly
system.cpu.iew.predictedTakenIncorrect          13591                       # Number of branches that were predicted taken incorrectly
system.cpu.iew.wb_consumers                 233707647                       # num instructions consuming a value
system.cpu.iew.wb_count                     225648234                       # cumulative count of insts written-back
system.cpu.iew.wb_fanout                     0.503368                       # average fanout of values written-back
system.cpu.iew.wb_producers                 117640923                       # num instructions producing a value
system.cpu.iew.wb_rate                       1.512568                       # insts written-back per cycle
system.cpu.iew.wb_sent                      225669872                       # cumulative count of insts sent to commit
system.cpu.int_regfile_reads                258288592                       # number of integer regfile reads
system.cpu.int_regfile_writes               151644181                       # number of integer regfile writes
system.cpu.ipc                               1.340643                       # IPC: Instructions Per Cycle
system.cpu.ipc_total                         1.340643                       # IPC: Total IPC of All Threads
system.cpu.iq.FU_type_0::No_OpClass            145799      0.06%      0.06% # Type of FU issued
system.cpu.iq.FU_type_0::IntAlu             155425732     67.17%     67.24% # Type of FU issued
system.cpu.iq.FU_type_0::IntMult              1219733      0.53%     67.76% # Type of FU issued
system.cpu.iq.FU_type_0::IntDiv                     3      0.00%     67.76% # Type of FU issued
system.cpu.iq.FU_type_0::FloatAdd                   0      0.00%     67.76% # Type of FU issued
system.cpu.iq.FU_type_0::FloatCmp                   0      0.00%     67.76% # Type of FU issued
system.cpu.iq.FU_type_0::FloatCvt                   0      0.00%     67.76% # Type of FU issued
system.cpu.iq.FU_type_0::FloatMult                  0      0.00%     67.76% # Type of FU issued
system.cpu.iq.FU_type_0::FloatMultAcc               0      0.00%     67.76% # Type of FU issued
system.cpu.iq.FU_type_0::FloatDiv                   0      0.00%     67.76% # Type of FU issued
system.cpu.iq.FU_type_0::FloatMisc                  0      0.00%     67.76% # Type of FU issued
system.cpu.iq.FU_type_0::FloatSqrt                  0      0.00%     67.76% # Type of FU issued
system.cpu.iq.FU_type_0::SimdAdd               339426      0.15%     67.91% # Type of FU issued
system.cpu.iq.FU_type_0::SimdAddAcc                 0      0.00%     67.91% # Type of FU issued
system.cpu.iq.FU_type_0::SimdAlu               339424      0.15%     68.06% # Type of FU issued
system.cpu.iq.FU_type_0::SimdCmp               291608      0.13%     68.18% # Type of FU issued
system.cpu.iq.FU_type_0::SimdCvt                    0      0.00%     68.18% # Type of FU issued
system.cpu.iq.FU_type_0::SimdMisc              393851      0.17%     68.35% # Type of FU issued
system.cpu.iq.FU_type_0::SimdMult                   0      0.00%     68.35% # Type of FU issued
system.cpu.iq.FU_type_0::SimdMultAcc                0      0.00%     68.35% # Type of FU issued
system.cpu.iq.FU_type_0::SimdShift                  0      0.00%     68.35% # Type of FU issued
system.cpu.iq.FU_type_0::SimdShiftAcc               0      0.00%     68.35% # Type of FU issued
system.cpu.iq.FU_type_0::SimdDiv                    0      0.00%     68.35% # Type of FU issued
system.cpu.iq.FU_type_0::SimdSqrt                   0      0.00%     68.35% # Type of FU issued
system.cpu.iq.FU_type_0::SimdFloatAdd               0      0.00%     68.35% # Type of FU issued
system.cpu.iq.FU_type_0::SimdFloatAlu               0      0.00%     68.35% # Type of FU issued
system.cpu.iq.FU_type_0::SimdFloatCmp               0      0.00%     68.35% # Type of FU issued
system.cpu.iq.FU_type_0::SimdFloatCvt               0      0.00%     68.35% # Type of FU issued
system.cpu.iq.FU_type_0::SimdFloatDiv               0      0.00%     68.35% # Type of FU issued
system.cpu.iq.FU_type_0::SimdFloatMisc              0      0.00%     68.35% # Type of FU issued
system.cpu.iq.FU_type_0::SimdFloatMult              0      0.00%     68.35% # Type of FU issued
system.cpu.iq.FU_type_0::SimdFloatMultAcc            0      0.00%     68.35% # Type of FU issued
system.cpu.iq.FU_type_0::SimdFloatSqrt              0      0.00%     68.35% # Type of FU issued
system.cpu.iq.FU_type_0::SimdReduceAdd              0      0.00%     68.35% # Type of FU issued
system.cpu.iq.FU_type_0::SimdReduceAlu              0      0.00%     68.35% # Type of FU issued
system.cpu.iq.FU_type_0::SimdReduceCmp              0      0.00%     68.35% # Type of FU issued
system.cpu.iq.FU_type_0::SimdFloatReduceAdd            0      0.00%     68.35% # Type of FU issued
system.cpu.iq.FU_type_0::SimdFloatReduceCmp            0      0.00%     68.35% # Type of FU issued
system.cpu.iq.FU_type_0::SimdAes                    0      0.00%     68.35% # Type of FU issued
system.cpu.iq.FU_type_0::SimdAesMix                 0      0.00%     68.35% # Type of FU issued
system.cpu.iq.FU_type_0::SimdSha1Hash               0      0.00%     68.35% # Type of FU issued
system.cpu.iq.FU_type_0::SimdSha1Hash2              0      0.00%     68.35% # Type of FU issued
system.cpu.iq.FU_type_0::SimdSha256Hash             0      0.00%     68.35% # Type of FU issued
system.cpu.iq.FU_type_0::SimdSha256Hash2            0      0.00%     68.35% # Type of FU issued
system.cpu.iq.FU_type_0::SimdShaSigma2              0      0.00%     68.35% # Type of FU issued
system.cpu.iq.FU_type_0::SimdShaSigma3              0      0.00%     68.35% # Type of FU issued
system.cpu.iq.FU_type_0::SimdPredAlu                0      0.00%     68.35% # Type of FU issued
system.cpu.iq.FU_type_0::MemRead             40868636     17.66%     86.02% # Type of FU issued
system.cpu.iq.FU_type_0::MemWrite            32354949     13.98%    100.00% # Type of FU issued
system.cpu.iq.FU_type_0::FloatMemRead               0      0.00%    100.00% # Type of FU issued
system.cpu.iq.FU_type_0::FloatMemWrite              0      0.00%    100.00% # Type of FU issued
system.cpu.iq.FU_type_0::IprAccess                  0      0.00%    100.00% # Type of FU issued
system.cpu.iq.FU_type_0::InstPrefetch               0      0.00%    100.00% # Type of FU issued
system.cpu.iq.FU_type_0::total              231379161                       # Type of FU issued
system.cpu.iq.fp_alu_accesses                       0                       # Number of floating point alu accesses
system.cpu.iq.fp_inst_queue_reads                   0                       # Number of floating instruction queue reads
system.cpu.iq.fp_inst_queue_wakeup_accesses            0                       # Number of floating instruction queue wakeup accesses
system.cpu.iq.fp_inst_queue_writes                  0                       # Number of floating instruction queue writes
system.cpu.iq.fu_busy_cnt                           0                       # FU busy when requested
system.cpu.iq.fu_busy_rate                          0                       # FU busy rate (busy events/executed inst)
system.cpu.iq.fu_full::No_OpClass                   0                       # attempts to use FU when none available
system.cpu.iq.fu_full::IntAlu                       0                       # attempts to use FU when none available
system.cpu.iq.fu_full::IntMult                      0                       # attempts to use FU when none available
system.cpu.iq.fu_full::IntDiv                       0                       # attempts to use FU when none available
system.cpu.iq.fu_full::FloatAdd                     0                       # attempts to use FU when none available
system.cpu.iq.fu_full::FloatCmp                     0                       # attempts to use FU when none available
system.cpu.iq.fu_full::FloatCvt                     0                       # attempts to use FU when none available
system.cpu.iq.fu_full::FloatMult                    0                       # attempts to use FU when none available
system.cpu.iq.fu_full::FloatMultAcc                 0                       # attempts to use FU when none available
system.cpu.iq.fu_full::FloatDiv                     0                       # attempts to use FU when none available
system.cpu.iq.fu_full::FloatMisc                    0                       # attempts to use FU when none available
system.cpu.iq.fu_full::FloatSqrt                    0                       # attempts to use FU when none available
system.cpu.iq.fu_full::SimdAdd                      0                       # attempts to use FU when none available
system.cpu.iq.fu_full::SimdAddAcc                   0                       # attempts to use FU when none available
system.cpu.iq.fu_full::SimdAlu                      0                       # attempts to use FU when none available
system.cpu.iq.fu_full::SimdCmp                      0                       # attempts to use FU when none available
system.cpu.iq.fu_full::SimdCvt                      0                       # attempts to use FU when none available
system.cpu.iq.fu_full::SimdMisc                     0                       # attempts to use FU when none available
system.cpu.iq.fu_full::SimdMult                     0                       # attempts to use FU when none available
system.cpu.iq.fu_full::SimdMultAcc                  0                       # attempts to use FU when none available
system.cpu.iq.fu_full::SimdShift                    0                       # attempts to use FU when none available
system.cpu.iq.fu_full::SimdShiftAcc                 0                       # attempts to use FU when none available
system.cpu.iq.fu_full::SimdDiv                      0                       # attempts to use FU when none available
system.cpu.iq.fu_full::SimdSqrt                     0                       # attempts to use FU when none available
system.cpu.iq.fu_full::SimdFloatAdd                 0                       # attempts to use FU when none available
system.cpu.iq.fu_full::SimdFloatAlu                 0                       # attempts to use FU when none available
system.cpu.iq.fu_full::SimdFloatCmp                 0                       # attempts to use FU when none available
system.cpu.iq.fu_full::SimdFloatCvt                 0                       # attempts to use FU when none available
system.cpu.iq.fu_full::SimdFloatDiv                 0                       # attempts to use FU when none available
system.cpu.iq.fu_full::SimdFloatMisc                0                       # attempts to use FU when none available
system.cpu.iq.fu_full::SimdFloatMult                0                       # attempts to use FU when none available
system.cpu.iq.fu_full::SimdFloatMultAcc             0                       # attempts to use FU when none available
system.cpu.iq.fu_full::SimdFloatSqrt                0                       # attempts to use FU when none available
system.cpu.iq.fu_full::SimdReduceAdd                0                       # attempts to use FU when none available
system.cpu.iq.fu_full::SimdReduceAlu                0                       # attempts to use FU when none available
system.cpu.iq.fu_full::SimdReduceCmp                0                       # attempts to use FU when none available
system.cpu.iq.fu_full::SimdFloatReduceAdd            0                       # attempts to use FU when none available
system.cpu.iq.fu_full::SimdFloatReduceCmp            0                       # attempts to use FU when none available
system.cpu.iq.fu_full::SimdAes                      0                       # attempts to use FU when none available
system.cpu.iq.fu_full::SimdAesMix                   0                       # attempts to use FU when none available
system.cpu.iq.fu_full::SimdSha1Hash                 0                       # attempts to use FU when none available
system.cpu.iq.fu_full::SimdSha1Hash2                0                       # attempts to use FU when none available
system.cpu.iq.fu_full::SimdSha256Hash               0                       # attempts to use FU when none available
system.cpu.iq.fu_full::SimdSha256Hash2              0                       # attempts to use FU when none available
system.cpu.iq.fu_full::SimdShaSigma2                0                       # attempts to use FU when none available
system.cpu.iq.fu_full::SimdShaSigma3                0                       # attempts to use FU when none available
system.cpu.iq.fu_full::SimdPredAlu                  0                       # attempts to use FU when none available
system.cpu.iq.fu_full::MemRead                      0                       # attempts to use FU when none available
system.cpu.iq.fu_full::MemWrite                     0                       # attempts to use FU when none available
system.cpu.iq.fu_full::FloatMemRead                 0                       # attempts to use FU when none available
system.cpu.iq.fu_full::FloatMemWrite                0                       # attempts to use FU when none available
system.cpu.iq.fu_full::IprAccess                    0                       # attempts to use FU when none available
system.cpu.iq.fu_full::InstPrefetch                 0                       # attempts to use FU when none available
system.cpu.iq.int_alu_accesses              227970757                       # Number of integer alu accesses
system.cpu.iq.int_inst_queue_reads          601381616                       # Number of integer instruction queue reads
system.cpu.iq.int_inst_queue_wakeup_accesses    222247545                       # Number of integer instruction queue wakeup accesses
system.cpu.iq.int_inst_queue_writes         224064434                       # Number of integer instruction queue writes
system.cpu.iq.iqInstsAdded                  225994984                       # Number of instructions added to the IQ (excludes non-spec)
system.cpu.iq.iqInstsIssued                 231379161                       # Number of instructions issued
system.cpu.iq.iqNonSpecInstsAdded              200251                       # Number of non-speculative instructions added to the IQ
system.cpu.iq.iqSquashedInstsExamined         1377214                       # Number of squashed instructions iterated over during squash; mainly for profiling
system.cpu.iq.iqSquashedInstsIssued             63232                       # Number of squashed instructions issued
system.cpu.iq.iqSquashedNonSpecRemoved            163                       # Number of squashed non-spec instructions that were removed
system.cpu.iq.iqSquashedOperandsExamined       935424                       # Number of squashed operands that are examined and possibly removed from graph
system.cpu.iq.issued_per_cycle::samples     145376882                       # Number of insts issued each cycle
system.cpu.iq.issued_per_cycle::mean         1.591582                       # Number of insts issued each cycle
system.cpu.iq.issued_per_cycle::stdev        1.740108                       # Number of insts issued each cycle
system.cpu.iq.issued_per_cycle::underflows            0      0.00%      0.00% # Number of insts issued each cycle
system.cpu.iq.issued_per_cycle::0            69345028     47.70%     47.70% # Number of insts issued each cycle
system.cpu.iq.issued_per_cycle::1            12981594      8.93%     56.63% # Number of insts issued each cycle
system.cpu.iq.issued_per_cycle::2            11647461      8.01%     64.64% # Number of insts issued each cycle
system.cpu.iq.issued_per_cycle::3            10508551      7.23%     71.87% # Number of insts issued each cycle
system.cpu.iq.issued_per_cycle::4            40894248     28.13%    100.00% # Number of insts issued each cycle
system.cpu.iq.issued_per_cycle::overflows            0      0.00%    100.00% # Number of insts issued each cycle
system.cpu.iq.issued_per_cycle::min_value            0                       # Number of insts issued each cycle
system.cpu.iq.issued_per_cycle::max_value            4                       # Number of insts issued each cycle
system.cpu.iq.issued_per_cycle::total       145376882                       # Number of insts issued each cycle
system.cpu.iq.rate                           1.550984                       # Inst issue rate
system.cpu.iq.vec_alu_accesses                3262605                       # Number of vector alu accesses
system.cpu.iq.vec_inst_queue_reads            6816816                       # Number of vector instruction queue reads
system.cpu.iq.vec_inst_queue_wakeup_accesses      3400689                       # Number of vector instruction queue wakeup accesses
system.cpu.iq.vec_inst_queue_writes           3509643                       # Number of vector instruction queue writes
system.cpu.itb.accesses                             0                       # DTB accesses
system.cpu.itb.align_faults                         0                       # Number of TLB faults due to alignment restrictions
system.cpu.itb.domain_faults                        0                       # Number of TLB faults due to domain restrictions
system.cpu.itb.flush_entries                        0                       # Number of entries that have been flushed from TLB
system.cpu.itb.flush_tlb                            0                       # Number of times complete TLB was flushed
system.cpu.itb.flush_tlb_asid                       0                       # Number of times TLB was flushed by ASID
system.cpu.itb.flush_tlb_mva                        0                       # Number of times TLB was flushed by MVA
system.cpu.itb.flush_tlb_mva_asid                   0                       # Number of times TLB was flushed by MVA & ASID
system.cpu.itb.hits                                 0                       # DTB hits
system.cpu.itb.inst_accesses                        0                       # ITB inst accesses
system.cpu.itb.inst_hits                            0                       # ITB inst hits
system.cpu.itb.inst_misses                          0                       # ITB inst misses
system.cpu.itb.misses                               0                       # DTB misses
system.cpu.itb.perms_faults                         0                       # Number of TLB faults due to permissions restrictions
system.cpu.itb.prefetch_faults                      0                       # Number of TLB faults due to prefetch
system.cpu.itb.read_accesses                        0                       # DTB read accesses
system.cpu.itb.read_hits                            0                       # DTB read hits
system.cpu.itb.read_misses                          0                       # DTB read misses
system.cpu.itb.stage2_mmu.stage2_tlb.accesses            0                       # DTB accesses
system.cpu.itb.stage2_mmu.stage2_tlb.align_faults            0                       # Number of TLB faults due to alignment restrictions
system.cpu.itb.stage2_mmu.stage2_tlb.domain_faults            0                       # Number of TLB faults due to domain restrictions
system.cpu.itb.stage2_mmu.stage2_tlb.flush_entries            0                       # Number of entries that have been flushed from TLB
system.cpu.itb.stage2_mmu.stage2_tlb.flush_tlb            0                       # Number of times complete TLB was flushed
system.cpu.itb.stage2_mmu.stage2_tlb.flush_tlb_asid            0                       # Number of times TLB was flushed by ASID
system.cpu.itb.stage2_mmu.stage2_tlb.flush_tlb_mva            0                       # Number of times TLB was flushed by MVA
system.cpu.itb.stage2_mmu.stage2_tlb.flush_tlb_mva_asid            0                       # Number of times TLB was flushed by MVA & ASID
system.cpu.itb.stage2_mmu.stage2_tlb.hits            0                       # DTB hits
system.cpu.itb.stage2_mmu.stage2_tlb.inst_accesses            0                       # ITB inst accesses
system.cpu.itb.stage2_mmu.stage2_tlb.inst_hits            0                       # ITB inst hits
system.cpu.itb.stage2_mmu.stage2_tlb.inst_misses            0                       # ITB inst misses
system.cpu.itb.stage2_mmu.stage2_tlb.misses            0                       # DTB misses
system.cpu.itb.stage2_mmu.stage2_tlb.perms_faults            0                       # Number of TLB faults due to permissions restrictions
system.cpu.itb.stage2_mmu.stage2_tlb.prefetch_faults            0                       # Number of TLB faults due to prefetch
system.cpu.itb.stage2_mmu.stage2_tlb.read_accesses            0                       # DTB read accesses
system.cpu.itb.stage2_mmu.stage2_tlb.read_hits            0                       # DTB read hits
system.cpu.itb.stage2_mmu.stage2_tlb.read_misses            0                       # DTB read misses
system.cpu.itb.stage2_mmu.stage2_tlb.walker.walkRequestOrigin_Requested::Data            0                       # Table walker requests started/completed, data/inst
system.cpu.itb.stage2_mmu.stage2_tlb.walker.walkRequestOrigin_Requested::Inst            0                       # Table walker requests started/completed, data/inst
system.cpu.itb.stage2_mmu.stage2_tlb.walker.walkRequestOrigin_Requested::total            0                       # Table walker requests started/completed, data/inst
system.cpu.itb.stage2_mmu.stage2_tlb.walker.walkRequestOrigin_Completed::Data            0                       # Table walker requests started/completed, data/inst
system.cpu.itb.stage2_mmu.stage2_tlb.walker.walkRequestOrigin_Completed::Inst            0                       # Table walker requests started/completed, data/inst
system.cpu.itb.stage2_mmu.stage2_tlb.walker.walkRequestOrigin_Completed::total            0                       # Table walker requests started/completed, data/inst
system.cpu.itb.stage2_mmu.stage2_tlb.walker.walkRequestOrigin::total            0                       # Table walker requests started/completed, data/inst
system.cpu.itb.stage2_mmu.stage2_tlb.walker.walks            0                       # Table walker walks requested
system.cpu.itb.stage2_mmu.stage2_tlb.write_accesses            0                       # DTB write accesses
system.cpu.itb.stage2_mmu.stage2_tlb.write_hits            0                       # DTB write hits
system.cpu.itb.stage2_mmu.stage2_tlb.write_misses            0                       # DTB write misses
system.cpu.itb.walker.walkRequestOrigin_Requested::Data            0                       # Table walker requests started/completed, data/inst
system.cpu.itb.walker.walkRequestOrigin_Requested::Inst            0                       # Table walker requests started/completed, data/inst
system.cpu.itb.walker.walkRequestOrigin_Requested::total            0                       # Table walker requests started/completed, data/inst
system.cpu.itb.walker.walkRequestOrigin_Completed::Data            0                       # Table walker requests started/completed, data/inst
system.cpu.itb.walker.walkRequestOrigin_Completed::Inst            0                       # Table walker requests started/completed, data/inst
system.cpu.itb.walker.walkRequestOrigin_Completed::total            0                       # Table walker requests started/completed, data/inst
system.cpu.itb.walker.walkRequestOrigin::total            0                       # Table walker requests started/completed, data/inst
system.cpu.itb.walker.walks                         0                       # Table walker walks requested
system.cpu.itb.write_accesses                       0                       # DTB write accesses
system.cpu.itb.write_hits                           0                       # DTB write hits
system.cpu.itb.write_misses                         0                       # DTB write misses
system.cpu.memDep0.conflictingLoads           3415817                       # Number of conflicting loads.
system.cpu.memDep0.conflictingStores          1224810                       # Number of conflicting stores.
system.cpu.memDep0.insertedLoads             35322670                       # Number of loads inserted to the mem dependence unit.
system.cpu.memDep0.insertedStores            32402203                       # Number of stores inserted to the mem dependence unit.
system.cpu.misc_regfile_reads               155510277                       # number of misc regfile reads
system.cpu.misc_regfile_writes                 799569                       # number of misc regfile writes
system.cpu.numCycles                        149182190                       # number of cpu cycles simulated
system.cpu.numWorkItemsCompleted                    0                       # number of work items this cpu completed
system.cpu.numWorkItemsStarted                      0                       # number of work items this cpu started
system.cpu.rename.BlockCycles                 1367571                       # Number of cycles rename is blocking
system.cpu.rename.CommittedMaps             244909651                       # Number of HB maps that are committed
system.cpu.rename.IQFullEvents                2459453                       # Number of times rename has blocked due to IQ full
system.cpu.rename.IdleCycles                 60426608                       # Number of cycles rename is idle
system.cpu.rename.LQFullEvents                    136                       # Number of times rename has blocked due to LQ full
system.cpu.rename.ROBFullEvents                    16                       # Number of times rename has blocked due to ROB full
system.cpu.rename.RenameLookups             363115463                       # Number of register rename lookups that rename has made
system.cpu.rename.RenamedInsts              226445567                       # Number of instructions processed by rename
system.cpu.rename.RenamedOperands           246547502                       # Number of destination operands rename has renamed
system.cpu.rename.RunCycles                  41323994                       # Number of cycles rename is running
system.cpu.rename.SQFullEvents                4013508                       # Number of times rename has blocked due to SQ full
system.cpu.rename.SquashCycles                  41097                       # Number of cycles rename is squashing
system.cpu.rename.UnblockCycles               7977616                       # Number of cycles rename is unblocking
system.cpu.rename.UndoneMaps                  1637758                       # Number of HB maps that are undone due to squashing
system.cpu.rename.int_rename_lookups        253402548                       # Number of integer rename lookups
system.cpu.rename.serializeStallCycles       34239996                       # count of cycles rename stalled for serializing inst
system.cpu.rename.serializingInsts             678171                       # count of serializing insts renamed
system.cpu.rename.skidInsts                  13445169                       # count of insts added to the skid buffer
system.cpu.rename.tempSerializingInsts         200252                       # count of temporary serializing insts renamed
system.cpu.rename.vec_rename_lookups          4258918                       # Number of vector rename lookups
system.cpu.rob.rob_reads                    359616647                       # The number of ROB reads
system.cpu.rob.rob_writes                   452709715                       # The number of ROB writes
system.cpu.timesIdled                         1073361                       # Number of times that the entire CPU went into an idle state and unscheduled itself
system.cpu.vec_regfile_reads                  4170909                       # number of vector regfile reads
system.cpu.vec_regfile_writes                 1755556                       # number of vector regfile writes
system.cpu.workload.numSyscalls                   195                       # Number of system calls
system.membus.snoop_filter.hit_multi_requests            0                       # Number of requests hitting in the snoop filter with multiple (>1) holders of the requested data.
system.membus.snoop_filter.hit_multi_snoops            0                       # Number of snoops hitting in the snoop filter with multiple (>1) holders of the requested data.
system.membus.snoop_filter.hit_single_requests       226404                       # Number of requests hitting in the snoop filter with a single holder of the requested data.
system.membus.snoop_filter.hit_single_snoops            0                       # Number of snoops hitting in the snoop filter with a single holder of the requested data.
system.membus.snoop_filter.tot_requests        485935                       # Total number of requests made to the snoop filter.
system.membus.snoop_filter.tot_snoops               0                       # Total number of snoops made to the snoop filter.
system.tol2bus.snoop_filter.hit_multi_requests            1                       # Number of requests hitting in the snoop filter with multiple (>1) holders of the requested data.
system.tol2bus.snoop_filter.hit_multi_snoops            0                       # Number of snoops hitting in the snoop filter with multiple (>1) holders of the requested data.
system.tol2bus.snoop_filter.hit_single_requests      2315208                       # Number of requests hitting in the snoop filter with a single holder of the requested data.
system.tol2bus.snoop_filter.hit_single_snoops          423                       # Number of snoops hitting in the snoop filter with a single holder of the requested data.
system.tol2bus.snoop_filter.tot_requests      4631292                       # Total number of requests made to the snoop filter.
system.tol2bus.snoop_filter.tot_snoops            423                       # Total number of snoops made to the snoop filter.
system.membus.trans_dist::ReadResp              50334                       # Transaction distribution
system.membus.trans_dist::WritebackDirty       226154                       # Transaction distribution
system.membus.trans_dist::CleanEvict              250                       # Transaction distribution
system.membus.trans_dist::ReadExReq            209184                       # Transaction distribution
system.membus.trans_dist::ReadExResp           209184                       # Transaction distribution
system.membus.trans_dist::ReadSharedReq         50334                       # Transaction distribution
system.membus.trans_dist::InvalidateReq            13                       # Transaction distribution
system.membus.pkt_count_system.l2.mem_side::system.mem_ctrls.port       745453                       # Packet count per connected master and slave (bytes)
system.membus.pkt_count::total                 745453                       # Packet count per connected master and slave (bytes)
system.membus.pkt_size_system.l2.mem_side::system.mem_ctrls.port     31083008                       # Cumulative packet size per connected master and slave (bytes)
system.membus.pkt_size::total                31083008                       # Cumulative packet size per connected master and slave (bytes)
system.membus.snoops                                0                       # Total snoops (count)
system.membus.snoopTraffic                          0                       # Total snoop traffic (bytes)
system.membus.snoop_fanout::samples            259531                       # Request fanout histogram
system.membus.snoop_fanout::mean                    0                       # Request fanout histogram
system.membus.snoop_fanout::stdev                   0                       # Request fanout histogram
system.membus.snoop_fanout::underflows              0      0.00%      0.00% # Request fanout histogram
system.membus.snoop_fanout::0                  259531    100.00%    100.00% # Request fanout histogram
system.membus.snoop_fanout::1                       0      0.00%    100.00% # Request fanout histogram
system.membus.snoop_fanout::overflows               0      0.00%    100.00% # Request fanout histogram
system.membus.snoop_fanout::min_value               0                       # Request fanout histogram
system.membus.snoop_fanout::max_value               0                       # Request fanout histogram
system.membus.snoop_fanout::total              259531                       # Request fanout histogram
system.membus.reqLayer0.occupancy          1438656500                       # Layer occupancy (ticks)
system.membus.reqLayer0.utilization               1.9                       # Layer utilization (%)
system.membus.respLayer1.occupancy         1358831250                       # Layer occupancy (ticks)
system.membus.respLayer1.utilization              1.8                       # Layer utilization (%)
system.membus.power_state.pwrStateResidencyTicks::UNDEFINED  74591094500                       # Cumulative time (in ticks) in various power states
system.tol2bus.trans_dist::ReadResp           2104380                       # Transaction distribution
system.tol2bus.trans_dist::WritebackDirty       616898                       # Transaction distribution
system.tol2bus.trans_dist::WritebackClean      1799557                       # Transaction distribution
system.tol2bus.trans_dist::CleanEvict          125566                       # Transaction distribution
system.tol2bus.trans_dist::ReadExReq           211691                       # Transaction distribution
system.tol2bus.trans_dist::ReadExResp          211691                       # Transaction distribution
system.tol2bus.trans_dist::ReadCleanReq       1799921                       # Transaction distribution
system.tol2bus.trans_dist::ReadSharedReq       304459                       # Transaction distribution
system.tol2bus.trans_dist::InvalidateReq           13                       # Transaction distribution
system.tol2bus.trans_dist::InvalidateResp           13                       # Transaction distribution
system.tol2bus.pkt_count_system.cpu.icache.mem_side::system.l2.cpu_side      5399399                       # Packet count per connected master and slave (bytes)
system.tol2bus.pkt_count_system.cpu.dcache.mem_side::system.l2.cpu_side      1547977                       # Packet count per connected master and slave (bytes)
system.tol2bus.pkt_count::total               6947376                       # Packet count per connected master and slave (bytes)
system.tol2bus.pkt_size_system.cpu.icache.mem_side::system.l2.cpu_side    230366592                       # Cumulative packet size per connected master and slave (bytes)
system.tol2bus.pkt_size_system.cpu.dcache.mem_side::system.l2.cpu_side     58041216                       # Cumulative packet size per connected master and slave (bytes)
system.tol2bus.pkt_size::total              288407808                       # Cumulative packet size per connected master and slave (bytes)
system.tol2bus.snoops                          226813                       # Total snoops (count)
system.tol2bus.snoopTraffic                  14473856                       # Total snoop traffic (bytes)
system.tol2bus.snoop_fanout::samples          2542897                       # Request fanout histogram
system.tol2bus.snoop_fanout::mean            0.000167                       # Request fanout histogram
system.tol2bus.snoop_fanout::stdev           0.012912                       # Request fanout histogram
system.tol2bus.snoop_fanout::underflows             0      0.00%      0.00% # Request fanout histogram
system.tol2bus.snoop_fanout::0                2542473     99.98%     99.98% # Request fanout histogram
system.tol2bus.snoop_fanout::1                    424      0.02%    100.00% # Request fanout histogram
system.tol2bus.snoop_fanout::2                      0      0.00%    100.00% # Request fanout histogram
system.tol2bus.snoop_fanout::overflows              0      0.00%    100.00% # Request fanout histogram
system.tol2bus.snoop_fanout::min_value              0                       # Request fanout histogram
system.tol2bus.snoop_fanout::max_value              1                       # Request fanout histogram
system.tol2bus.snoop_fanout::total            2542897                       # Request fanout histogram
system.tol2bus.reqLayer0.occupancy         4505947000                       # Layer occupancy (ticks)
system.tol2bus.reqLayer0.utilization              6.0                       # Layer utilization (%)
system.tol2bus.respLayer1.occupancy         774231500                       # Layer occupancy (ticks)
system.tol2bus.respLayer1.utilization             1.0                       # Layer utilization (%)
system.tol2bus.respLayer0.occupancy        2699890981                       # Layer occupancy (ticks)
system.tol2bus.respLayer0.utilization             3.6                       # Layer utilization (%)
system.tol2bus.power_state.pwrStateResidencyTicks::UNDEFINED  74591094500                       # Cumulative time (in ticks) in various power states
system.voltage_domain.voltage                       1                       # Voltage in Volts
system.clk_domain.clock                          1000                       # Clock period in ticks
system.l2.demand_hits::.cpu.inst              1799385                       # number of demand (read+write) hits
system.l2.demand_hits::.cpu.data               257168                       # number of demand (read+write) hits
system.l2.demand_hits::total                  2056553                       # number of demand (read+write) hits
system.l2.overall_hits::.cpu.inst             1799385                       # number of overall hits
system.l2.overall_hits::.cpu.data              257168                       # number of overall hits
system.l2.overall_hits::total                 2056553                       # number of overall hits
system.l2.demand_misses::.cpu.inst                536                       # number of demand (read+write) misses
system.l2.demand_misses::.cpu.data             258982                       # number of demand (read+write) misses
system.l2.demand_misses::total                 259518                       # number of demand (read+write) misses
system.l2.overall_misses::.cpu.inst               536                       # number of overall misses
system.l2.overall_misses::.cpu.data            258982                       # number of overall misses
system.l2.overall_misses::total                259518                       # number of overall misses
system.l2.demand_miss_latency::.cpu.inst     42127500                       # number of demand (read+write) miss cycles
system.l2.demand_miss_latency::.cpu.data  22552320500                       # number of demand (read+write) miss cycles
system.l2.demand_miss_latency::total      22594448000                       # number of demand (read+write) miss cycles
system.l2.overall_miss_latency::.cpu.inst     42127500                       # number of overall miss cycles
system.l2.overall_miss_latency::.cpu.data  22552320500                       # number of overall miss cycles
system.l2.overall_miss_latency::total     22594448000                       # number of overall miss cycles
system.l2.demand_accesses::.cpu.inst          1799921                       # number of demand (read+write) accesses
system.l2.demand_accesses::.cpu.data           516150                       # number of demand (read+write) accesses
system.l2.demand_accesses::total              2316071                       # number of demand (read+write) accesses
system.l2.overall_accesses::.cpu.inst         1799921                       # number of overall (read+write) accesses
system.l2.overall_accesses::.cpu.data          516150                       # number of overall (read+write) accesses
system.l2.overall_accesses::total             2316071                       # number of overall (read+write) accesses
system.l2.demand_miss_rate::.cpu.inst        0.000298                       # miss rate for demand accesses
system.l2.demand_miss_rate::.cpu.data        0.501757                       # miss rate for demand accesses
system.l2.demand_miss_rate::total            0.112051                       # miss rate for demand accesses
system.l2.overall_miss_rate::.cpu.inst       0.000298                       # miss rate for overall accesses
[...]
system.cpu.dcache.demand_accesses::total     64837933                       # number of demand (read+write) accesses
system.cpu.dcache.overall_accesses::.cpu.data     64949573                       # number of overall (read+write) accesses
system.cpu.dcache.overall_accesses::total     64949573                       # number of overall (read+write) accesses
system.cpu.dcache.demand_miss_rate::.cpu.data     0.011229                       # miss rate for demand accesses
system.cpu.dcache.demand_miss_rate::total     0.011229                       # miss rate for demand accesses
system.cpu.dcache.overall_miss_rate::.cpu.data     0.011371                       # miss rate for overall accesses
system.cpu.dcache.overall_miss_rate::total     0.011371                       # miss rate for overall accesses
system.cpu.dcache.demand_avg_miss_latency::.cpu.data 53567.856405                       # average overall miss latency
system.cpu.dcache.demand_avg_miss_latency::total 53567.856405                       # average overall miss latency
system.cpu.dcache.overall_avg_miss_latency::.cpu.data 52806.268334                       # average overall miss latency
system.cpu.dcache.overall_avg_miss_latency::total 52806.268334                       # average overall miss latency
system.cpu.dcache.blocked_cycles::no_mshrs      4206542                       # number of cycles access was blocked
system.cpu.dcache.blocked_cycles::no_targets            0                       # number of cycles access was blocked
system.cpu.dcache.blocked::no_mshrs             55105                       # number of cycles access was blocked
system.cpu.dcache.blocked::no_targets               0                       # number of cycles access was blocked
system.cpu.dcache.avg_blocked_cycles::no_mshrs    76.336848                       # average number of cycles each access was blocked
system.cpu.dcache.avg_blocked_cycles::no_targets          nan                       # average number of cycles each access was blocked
system.cpu.dcache.writebacks::.writebacks       390744                       # number of writebacks
system.cpu.dcache.writebacks::total            390744                       # number of writebacks
system.cpu.dcache.demand_mshr_hits::.cpu.data       211879                       # number of demand (read+write) MSHR hits
system.cpu.dcache.demand_mshr_hits::total       211879                       # number of demand (read+write) MSHR hits
system.cpu.dcache.overall_mshr_hits::.cpu.data       211879                       # number of overall MSHR hits
system.cpu.dcache.overall_mshr_hits::total       211879                       # number of overall MSHR hits
system.cpu.dcache.demand_mshr_misses::.cpu.data       516160                       # number of demand (read+write) MSHR misses
system.cpu.dcache.demand_mshr_misses::total       516160                       # number of demand (read+write) MSHR misses
system.cpu.dcache.overall_mshr_misses::.cpu.data       516162                       # number of overall MSHR misses
system.cpu.dcache.overall_mshr_misses::total       516162                       # number of overall MSHR misses
system.cpu.dcache.demand_mshr_miss_latency::.cpu.data  26093992487                       # number of demand (read+write) MSHR miss cycles
system.cpu.dcache.demand_mshr_miss_latency::total  26093992487                       # number of demand (read+write) MSHR miss cycles
system.cpu.dcache.overall_mshr_miss_latency::.cpu.data  26094176987                       # number of overall MSHR miss cycles
system.cpu.dcache.overall_mshr_miss_latency::total  26094176987                       # number of overall MSHR miss cycles
system.cpu.dcache.demand_mshr_miss_rate::.cpu.data     0.007961                       # mshr miss rate for demand accesses
system.cpu.dcache.demand_mshr_miss_rate::total     0.007961                       # mshr miss rate for demand accesses
system.cpu.dcache.overall_mshr_miss_rate::.cpu.data     0.007947                       # mshr miss rate for overall accesses
system.cpu.dcache.overall_mshr_miss_rate::total     0.007947                       # mshr miss rate for overall accesses
system.cpu.dcache.demand_avg_mshr_miss_latency::.cpu.data 50554.077199                       # average overall mshr miss latency
system.cpu.dcache.demand_avg_mshr_miss_latency::total 50554.077199                       # average overall mshr miss latency
system.cpu.dcache.overall_avg_mshr_miss_latency::.cpu.data 50554.238760                       # average overall mshr miss latency
system.cpu.dcache.overall_avg_mshr_miss_latency::total 50554.238760                       # average overall mshr miss latency
system.cpu.dcache.replacements                 515651                       # number of replacements
system.cpu.dcache.ReadReq_hits::.cpu.data     32413869                       # number of ReadReq hits
system.cpu.dcache.ReadReq_hits::total        32413869                       # number of ReadReq hits
system.cpu.dcache.ReadReq_misses::.cpu.data       409269                       # number of ReadReq misses
system.cpu.dcache.ReadReq_misses::total        409269                       # number of ReadReq misses
system.cpu.dcache.ReadReq_miss_latency::.cpu.data  12424602000                       # number of ReadReq miss cycles
system.cpu.dcache.ReadReq_miss_latency::total  12424602000                       # number of ReadReq miss cycles
system.cpu.dcache.ReadReq_accesses::.cpu.data     32823138                       # number of ReadReq accesses(hits+misses)
system.cpu.dcache.ReadReq_accesses::total     32823138                       # number of ReadReq accesses(hits+misses)
system.cpu.dcache.ReadReq_miss_rate::.cpu.data     0.012469                       # miss rate for ReadReq accesses
system.cpu.dcache.ReadReq_miss_rate::total     0.012469                       # miss rate for ReadReq accesses
system.cpu.dcache.ReadReq_avg_miss_latency::.cpu.data 30358.033469                       # average ReadReq miss latency
system.cpu.dcache.ReadReq_avg_miss_latency::total 30358.033469                       # average ReadReq miss latency
system.cpu.dcache.ReadReq_mshr_hits::.cpu.data       104568                       # number of ReadReq MSHR hits
system.cpu.dcache.ReadReq_mshr_hits::total       104568                       # number of ReadReq MSHR hits
system.cpu.dcache.ReadReq_mshr_misses::.cpu.data       304701                       # number of ReadReq MSHR misses
system.cpu.dcache.ReadReq_mshr_misses::total       304701                       # number of ReadReq MSHR misses
system.cpu.dcache.ReadReq_mshr_miss_latency::.cpu.data   7803577000                       # number of ReadReq MSHR miss cycles
system.cpu.dcache.ReadReq_mshr_miss_latency::total   7803577000                       # number of ReadReq MSHR miss cycles
system.cpu.dcache.ReadReq_mshr_miss_rate::.cpu.data     0.009283                       # mshr miss rate for ReadReq accesses
system.cpu.dcache.ReadReq_mshr_miss_rate::total     0.009283                       # mshr miss rate for ReadReq accesses
system.cpu.dcache.ReadReq_avg_mshr_miss_latency::.cpu.data 25610.605151                       # average ReadReq mshr miss latency
system.cpu.dcache.ReadReq_avg_mshr_miss_latency::total 25610.605151                       # average ReadReq mshr miss latency
system.cpu.dcache.WriteReq_hits::.cpu.data     31696025                       # number of WriteReq hits
system.cpu.dcache.WriteReq_hits::total       31696025                       # number of WriteReq hits
system.cpu.dcache.WriteReq_misses::.cpu.data       318757                       # number of WriteReq misses
system.cpu.dcache.WriteReq_misses::total       318757                       # number of WriteReq misses
system.cpu.dcache.WriteReq_miss_latency::.cpu.data  26574474614                       # number of WriteReq miss cycles
system.cpu.dcache.WriteReq_miss_latency::total  26574474614                       # number of WriteReq miss cycles
system.cpu.dcache.WriteReq_accesses::.cpu.data     32014782                       # number of WriteReq accesses(hits+misses)
system.cpu.dcache.WriteReq_accesses::total     32014782                       # number of WriteReq accesses(hits+misses)
system.cpu.dcache.WriteReq_miss_rate::.cpu.data     0.009957                       # miss rate for WriteReq accesses
system.cpu.dcache.WriteReq_miss_rate::total     0.009957                       # miss rate for WriteReq accesses
system.cpu.dcache.WriteReq_avg_miss_latency::.cpu.data 83369.069900                       # average WriteReq miss latency
system.cpu.dcache.WriteReq_avg_miss_latency::total 83369.069900                       # average WriteReq miss latency
system.cpu.dcache.WriteReq_mshr_hits::.cpu.data       107311                       # number of WriteReq MSHR hits
system.cpu.dcache.WriteReq_mshr_hits::total       107311                       # number of WriteReq MSHR hits
system.cpu.dcache.WriteReq_mshr_misses::.cpu.data       211446                       # number of WriteReq MSHR misses
system.cpu.dcache.WriteReq_mshr_misses::total       211446                       # number of WriteReq MSHR misses
system.cpu.dcache.WriteReq_mshr_miss_latency::.cpu.data  18290016492                       # number of WriteReq MSHR miss cycles
system.cpu.dcache.WriteReq_mshr_miss_latency::total  18290016492                       # number of WriteReq MSHR miss cycles
system.cpu.dcache.WriteReq_mshr_miss_rate::.cpu.data     0.006605                       # mshr miss rate for WriteReq accesses
system.cpu.dcache.WriteReq_mshr_miss_rate::total     0.006605                       # mshr miss rate for WriteReq accesses
system.cpu.dcache.WriteReq_avg_mshr_miss_latency::.cpu.data 86499.704378                       # average WriteReq mshr miss latency
system.cpu.dcache.WriteReq_avg_mshr_miss_latency::total 86499.704378                       # average WriteReq mshr miss latency
system.cpu.dcache.SoftPFReq_hits::.cpu.data       101140                       # number of SoftPFReq hits
system.cpu.dcache.SoftPFReq_hits::total        101140                       # number of SoftPFReq hits
system.cpu.dcache.SoftPFReq_misses::.cpu.data        10500                       # number of SoftPFReq misses
system.cpu.dcache.SoftPFReq_misses::total        10500                       # number of SoftPFReq misses
system.cpu.dcache.SoftPFReq_accesses::.cpu.data       111640                       # number of SoftPFReq accesses(hits+misses)
system.cpu.dcache.SoftPFReq_accesses::total       111640                       # number of SoftPFReq accesses(hits+misses)
system.cpu.dcache.SoftPFReq_miss_rate::.cpu.data     0.094052                       # miss rate for SoftPFReq accesses
system.cpu.dcache.SoftPFReq_miss_rate::total     0.094052                       # miss rate for SoftPFReq accesses
system.cpu.dcache.SoftPFReq_mshr_misses::.cpu.data            2                       # number of SoftPFReq MSHR misses
system.cpu.dcache.SoftPFReq_mshr_misses::total            2                       # number of SoftPFReq MSHR misses
system.cpu.dcache.SoftPFReq_mshr_miss_latency::.cpu.data       184500                       # number of SoftPFReq MSHR miss cycles
system.cpu.dcache.SoftPFReq_mshr_miss_latency::total       184500                       # number of SoftPFReq MSHR miss cycles
system.cpu.dcache.SoftPFReq_mshr_miss_rate::.cpu.data     0.000018                       # mshr miss rate for SoftPFReq accesses
system.cpu.dcache.SoftPFReq_mshr_miss_rate::total     0.000018                       # mshr miss rate for SoftPFReq accesses
system.cpu.dcache.SoftPFReq_avg_mshr_miss_latency::.cpu.data        92250                       # average SoftPFReq mshr miss latency
system.cpu.dcache.SoftPFReq_avg_mshr_miss_latency::total        92250                       # average SoftPFReq mshr miss latency
system.cpu.dcache.WriteLineReq_misses::.cpu.data           13                       # number of WriteLineReq misses
system.cpu.dcache.WriteLineReq_misses::total           13                       # number of WriteLineReq misses
system.cpu.dcache.WriteLineReq_miss_latency::.cpu.data       411995                       # number of WriteLineReq miss cycles
system.cpu.dcache.WriteLineReq_miss_latency::total       411995                       # number of WriteLineReq miss cycles
system.cpu.dcache.WriteLineReq_accesses::.cpu.data           13                       # number of WriteLineReq accesses(hits+misses)
system.cpu.dcache.WriteLineReq_accesses::total           13                       # number of WriteLineReq accesses(hits+misses)
system.cpu.dcache.WriteLineReq_miss_rate::.cpu.data            1                       # miss rate for WriteLineReq accesses
system.cpu.dcache.WriteLineReq_miss_rate::total            1                       # miss rate for WriteLineReq accesses
system.cpu.dcache.WriteLineReq_avg_miss_latency::.cpu.data 31691.923077                       # average WriteLineReq miss latency
system.cpu.dcache.WriteLineReq_avg_miss_latency::total 31691.923077                       # average WriteLineReq miss latency
system.cpu.dcache.WriteLineReq_mshr_misses::.cpu.data           13                       # number of WriteLineReq MSHR misses
system.cpu.dcache.WriteLineReq_mshr_misses::total           13                       # number of WriteLineReq MSHR misses
system.cpu.dcache.WriteLineReq_mshr_miss_latency::.cpu.data       398995                       # number of WriteLineReq MSHR miss cycles
system.cpu.dcache.WriteLineReq_mshr_miss_latency::total       398995                       # number of WriteLineReq MSHR miss cycles
system.cpu.dcache.WriteLineReq_mshr_miss_rate::.cpu.data            1                       # mshr miss rate for WriteLineReq accesses
system.cpu.dcache.WriteLineReq_mshr_miss_rate::total            1                       # mshr miss rate for WriteLineReq accesses
system.cpu.dcache.WriteLineReq_avg_mshr_miss_latency::.cpu.data 30691.923077                       # average WriteLineReq mshr miss latency
system.cpu.dcache.WriteLineReq_avg_mshr_miss_latency::total 30691.923077                       # average WriteLineReq mshr miss latency
system.cpu.dcache.LoadLockedReq_hits::.cpu.data       100099                       # number of LoadLockedReq hits
system.cpu.dcache.LoadLockedReq_hits::total       100099                       # number of LoadLockedReq hits
system.cpu.dcache.LoadLockedReq_misses::.cpu.data        99932                       # number of LoadLockedReq misses
system.cpu.dcache.LoadLockedReq_misses::total        99932                       # number of LoadLockedReq misses
system.cpu.dcache.LoadLockedReq_miss_latency::.cpu.data   1399184000                       # number of LoadLockedReq miss cycles
system.cpu.dcache.LoadLockedReq_miss_latency::total   1399184000                       # number of LoadLockedReq miss cycles
system.cpu.dcache.LoadLockedReq_accesses::.cpu.data       200031                       # number of LoadLockedReq accesses(hits+misses)
system.cpu.dcache.LoadLockedReq_accesses::total       200031                       # number of LoadLockedReq accesses(hits+misses)
system.cpu.dcache.LoadLockedReq_miss_rate::.cpu.data     0.499583                       # miss rate for LoadLockedReq accesses
system.cpu.dcache.LoadLockedReq_miss_rate::total     0.499583                       # miss rate for LoadLockedReq accesses
system.cpu.dcache.LoadLockedReq_avg_miss_latency::.cpu.data 14001.360925                       # average LoadLockedReq miss latency
system.cpu.dcache.LoadLockedReq_avg_miss_latency::total 14001.360925                       # average LoadLockedReq miss latency
system.cpu.dcache.LoadLockedReq_mshr_hits::.cpu.data        99931                       # number of LoadLockedReq MSHR hits
system.cpu.dcache.LoadLockedReq_mshr_hits::total        99931                       # number of LoadLockedReq MSHR hits
system.cpu.dcache.LoadLockedReq_mshr_misses::.cpu.data            1                       # number of LoadLockedReq MSHR misses
system.cpu.dcache.LoadLockedReq_mshr_misses::total            1                       # number of LoadLockedReq MSHR misses
system.cpu.dcache.LoadLockedReq_mshr_miss_latency::.cpu.data        92000                       # number of LoadLockedReq MSHR miss cycles
system.cpu.dcache.LoadLockedReq_mshr_miss_latency::total        92000                       # number of LoadLockedReq MSHR miss cycles
system.cpu.dcache.LoadLockedReq_mshr_miss_rate::.cpu.data     0.000005                       # mshr miss rate for LoadLockedReq accesses
system.cpu.dcache.LoadLockedReq_mshr_miss_rate::total     0.000005                       # mshr miss rate for LoadLockedReq accesses
system.cpu.dcache.LoadLockedReq_avg_mshr_miss_latency::.cpu.data        92000                       # average LoadLockedReq mshr miss latency
system.cpu.dcache.LoadLockedReq_avg_mshr_miss_latency::total        92000                       # average LoadLockedReq mshr miss latency
system.cpu.dcache.StoreCondReq_hits::.cpu.data       199892                       # number of StoreCondReq hits
system.cpu.dcache.StoreCondReq_hits::total       199892                       # number of StoreCondReq hits
system.cpu.dcache.StoreCondReq_accesses::.cpu.data       199892                       # number of StoreCondReq accesses(hits+misses)
system.cpu.dcache.StoreCondReq_accesses::total       199892                       # number of StoreCondReq accesses(hits+misses)
system.cpu.dcache.power_state.pwrStateResidencyTicks::UNDEFINED  74591094500                       # Cumulative time (in ticks) in various power states
system.cpu.dcache.tags.tagsinuse           511.740325                       # Cycle average of tags in use
system.cpu.dcache.tags.total_refs            65027188                       # Total number of references to valid blocks.
system.cpu.dcache.tags.sampled_refs            516163                       # Sample count of references to valid blocks.
system.cpu.dcache.tags.avg_refs            125.981886                       # Average number of references to valid blocks.
system.cpu.dcache.tags.warmup_cycle            176500                       # Cycle when the warmup percentage was hit.
system.cpu.dcache.tags.occ_blocks::.cpu.data   511.740325                       # Average occupied blocks per requestor
system.cpu.dcache.tags.occ_percent::.cpu.data     0.999493                       # Average percentage of cache occupancy
system.cpu.dcache.tags.occ_percent::total     0.999493                       # Average percentage of cache occupancy
system.cpu.dcache.tags.occ_task_id_blocks::1024          512                       # Occupied blocks per task id
system.cpu.dcache.tags.age_task_id_blocks_1024::0           27                       # Occupied blocks per task id
system.cpu.dcache.tags.age_task_id_blocks_1024::1          209                       # Occupied blocks per task id
system.cpu.dcache.tags.age_task_id_blocks_1024::2          239                       # Occupied blocks per task id
system.cpu.dcache.tags.age_task_id_blocks_1024::3           20                       # Occupied blocks per task id
system.cpu.dcache.tags.age_task_id_blocks_1024::4           17                       # Occupied blocks per task id
system.cpu.dcache.tags.occ_task_id_percent::1024            1                       # Percentage of cache occupancy per task id
system.cpu.dcache.tags.tag_accesses         131215155                       # Number of tag accesses
system.cpu.dcache.tags.data_accesses        131215155                       # Number of data accesses
system.cpu.dcache.tags.power_state.pwrStateResidencyTicks::UNDEFINED  74591094500                       # Cumulative time (in ticks) in various power states
system.cpu.power_state.pwrStateResidencyTicks::ON  74591094500                       # Cumulative time (in ticks) in various power states

---------- End Simulation Statistics   ----------
