
---------- Begin Simulation Statistics ----------
final_tick                               1955436526000                       # Number of ticks from beginning of simulation (restored from checkpoints and never reset)
host_inst_rate                                  58230                       # Simulator instruction rate (inst/s)
host_mem_usage                                1003916                       # Number of bytes of host memory used
host_op_rate                                   110225                       # Simulator op (including micro ops) rate (op/s)
host_seconds                                 35205.49                       # Real time elapsed on the host
host_tick_rate                               21116349                       # Simulator tick rate (ticks/s)
sim_freq                                 1000000000000                       # Frequency of simulated ticks
sim_insts                                  2050000002                       # Number of instructions simulated
sim_ops                                    3880515024                       # Number of ops (including micro ops) simulated
sim_seconds                                  0.743411                       # Number of seconds simulated
sim_ticks                                743411474750                       # Number of ticks simulated
system.cpu.committedInsts                           0                       # Number of instructions committed
system.cpu.committedOps                             0                       # Number of ops (including micro ops) committed
system.cpu.dtb.rdAccesses                           0                       # TLB accesses on read requests
system.cpu.dtb.rdMisses                             0                       # TLB misses on read requests
system.cpu.dtb.wrAccesses                           0                       # TLB accesses on write requests
system.cpu.dtb.wrMisses                             0                       # TLB misses on write requests
system.cpu.idle_fraction                            0                       # Percentage of idle cycles
system.cpu.itb.rdAccesses                           0                       # TLB accesses on read requests
system.cpu.itb.rdMisses                             0                       # TLB misses on read requests
system.cpu.itb.wrAccesses                           0                       # TLB accesses on write requests
system.cpu.itb.wrMisses                             0                       # TLB misses on write requests
system.cpu.not_idle_fraction                        1                       # Percentage of non-idle cycles
system.cpu.numCycles                                0                       # number of cpu cycles simulated
system.cpu.numWorkItemsCompleted                    0                       # number of work items this cpu completed
system.cpu.numWorkItemsStarted                      0                       # number of work items this cpu started
system.cpu.num_busy_cycles                          0                       # Number of busy cycles
system.cpu.num_conditional_control_insts            0                       # number of instructions that are conditional controls
system.cpu.num_fp_alu_accesses                      0                       # Number of float alu accesses
system.cpu.num_fp_insts                             0                       # number of float instructions
system.cpu.num_fp_register_reads                    0                       # number of times the floating registers were read
system.cpu.num_fp_register_writes                   0                       # number of times the floating registers were written
system.cpu.num_func_calls                           0                       # number of times a function call or return occured
system.cpu.num_idle_cycles                          0                       # Number of idle cycles
system.cpu.num_int_alu_accesses                     0                       # Number of integer alu accesses
system.cpu.num_int_insts                            0                       # number of integer instructions
system.cpu.num_int_register_reads                   0                       # number of times the integer registers were read
system.cpu.num_int_register_writes                  0                       # number of times the integer registers were written
system.cpu.num_load_insts                           0                       # Number of load instructions
system.cpu.num_mem_refs                             0                       # number of memory refs
system.cpu.num_store_insts                          0                       # Number of store instructions
system.cpu.num_vec_alu_accesses                     0                       # Number of vector alu accesses
system.cpu.num_vec_insts                            0                       # number of vector instructions
system.cpu.num_vec_register_reads                   0                       # number of times the vector registers were read
system.cpu.num_vec_register_writes                  0                       # number of times the vector registers were written
system.cpu.op_class::No_OpClass                     0                       # Class of executed instruction
system.cpu.op_class::IntAlu                         0                       # Class of executed instruction
system.cpu.op_class::IntMult                        0                       # Class of executed instruction
system.cpu.op_class::IntDiv                         0                       # Class of executed instruction
system.cpu.op_class::FloatAdd                       0                       # Class of executed instruction
system.cpu.op_class::FloatCmp                       0                       # Class of executed instruction
system.cpu.op_class::FloatCvt                       0                       # Class of executed instruction
system.cpu.op_class::FloatMult                      0                       # Class of executed instruction
system.cpu.op_class::FloatMultAcc                   0                       # Class of executed instruction
system.cpu.op_class::FloatDiv                       0                       # Class of executed instruction
system.cpu.op_class::FloatMisc                      0                       # Class of executed instruction
system.cpu.op_class::FloatSqrt                      0                       # Class of executed instruction
system.cpu.op_class::SimdAdd                        0                       # Class of executed instruction
system.cpu.op_class::SimdAddAcc                     0                       # Class of executed instruction
system.cpu.op_class::SimdAlu                        0                       # Class of executed instruction
system.cpu.op_class::SimdCmp                        0                       # Class of executed instruction
system.cpu.op_class::SimdCvt                        0                       # Class of executed instruction
system.cpu.op_class::SimdMisc                       0                       # Class of executed instruction
system.cpu.op_class::SimdMult                       0                       # Class of executed instruction
system.cpu.op_class::SimdMultAcc                    0                       # Class of executed instruction
system.cpu.op_class::SimdShift                      0                       # Class of executed instruction
system.cpu.op_class::SimdShiftAcc                   0                       # Class of executed instruction
system.cpu.op_class::SimdDiv                        0                       # Class of executed instruction
system.cpu.op_class::SimdSqrt                       0                       # Class of executed instruction
system.cpu.op_class::SimdFloatAdd                   0                       # Class of executed instruction
system.cpu.op_class::SimdFloatAlu                   0                       # Class of executed instruction
system.cpu.op_class::SimdFloatCmp                   0                       # Class of executed instruction
system.cpu.op_class::SimdFloatCvt                   0                       # Class of executed instruction
system.cpu.op_class::SimdFloatDiv                   0                       # Class of executed instruction
system.cpu.op_class::SimdFloatMisc                  0                       # Class of executed instruction
system.cpu.op_class::SimdFloatMult                  0                       # Class of executed instruction
system.cpu.op_class::SimdFloatMultAcc               0                       # Class of executed instruction
system.cpu.op_class::SimdFloatSqrt                  0                       # Class of executed instruction
system.cpu.op_class::SimdReduceAdd                  0                       # Class of executed instruction
system.cpu.op_class::SimdReduceAlu                  0                       # Class of executed instruction
system.cpu.op_class::SimdReduceCmp                  0                       # Class of executed instruction
system.cpu.op_class::SimdFloatReduceAdd             0                       # Class of executed instruction
system.cpu.op_class::SimdFloatReduceCmp             0                       # Class of executed instruction
system.cpu.op_class::SimdAes                        0                       # Class of executed instruction
system.cpu.op_class::SimdAesMix                     0                       # Class of executed instruction
system.cpu.op_class::SimdSha1Hash                   0                       # Class of executed instruction
system.cpu.op_class::SimdSha1Hash2                  0                       # Class of executed instruction
system.cpu.op_class::SimdSha256Hash                 0                       # Class of executed instruction
system.cpu.op_class::SimdSha256Hash2                0                       # Class of executed instruction
system.cpu.op_class::SimdShaSigma2                  0                       # Class of executed instruction
system.cpu.op_class::SimdShaSigma3                  0                       # Class of executed instruction
system.cpu.op_class::SimdPredAlu                    0                       # Class of executed instruction
system.cpu.op_class::MemRead                        0                       # Class of executed instruction
system.cpu.op_class::MemWrite                       0                       # Class of executed instruction
system.cpu.op_class::FloatMemRead                   0                       # Class of executed instruction
system.cpu.op_class::FloatMemWrite                  0                       # Class of executed instruction
system.cpu.op_class::IprAccess                      0                       # Class of executed instruction
system.cpu.op_class::InstPrefetch                   0                       # Class of executed instruction
system.cpu.op_class::total                          0                       # Class of executed instruction
system.cpu.workload.numSyscalls                    12                       # Number of system calls
system.membus.snoop_filter.hit_multi_requests            0                       # Number of requests hitting in the snoop filter with multiple (>1) holders of the requested data.
system.membus.snoop_filter.hit_multi_snoops            0                       # Number of snoops hitting in the snoop filter with multiple (>1) holders of the requested data.
system.membus.snoop_filter.hit_single_requests       358920                       # Number of requests hitting in the snoop filter with a single holder of the requested data.
system.membus.snoop_filter.hit_single_snoops            0                       # Number of snoops hitting in the snoop filter with a single holder of the requested data.
system.membus.snoop_filter.tot_requests        717839                       # Total number of requests made to the snoop filter.
system.membus.snoop_filter.tot_snoops               0                       # Total number of snoops made to the snoop filter.
system.switch_cpus.committedInsts                   0                       # Number of instructions committed
system.switch_cpus.committedOps                     0                       # Number of ops (including micro ops) committed
system.switch_cpus.dtb.rdAccesses                   0                       # TLB accesses on read requests
system.switch_cpus.dtb.rdMisses                     0                       # TLB misses on read requests
system.switch_cpus.dtb.wrAccesses                   0                       # TLB accesses on write requests
system.switch_cpus.dtb.wrMisses                     0                       # TLB misses on write requests
system.switch_cpus.idle_fraction                    0                       # Percentage of idle cycles
system.switch_cpus.itb.rdAccesses                   0                       # TLB accesses on read requests
system.switch_cpus.itb.rdMisses                     0                       # TLB misses on read requests
system.switch_cpus.itb.wrAccesses                   0                       # TLB accesses on write requests
system.switch_cpus.itb.wrMisses                     0                       # TLB misses on write requests
system.switch_cpus.not_idle_fraction                1                       # Percentage of non-idle cycles
system.switch_cpus.numCycles                        0                       # number of cpu cycles simulated
system.switch_cpus.numWorkItemsCompleted            0                       # number of work items this cpu completed
system.switch_cpus.numWorkItemsStarted              0                       # number of work items this cpu started
system.switch_cpus.num_busy_cycles                  0                       # Number of busy cycles
system.switch_cpus.num_conditional_control_insts            0                       # number of instructions that are conditional controls
system.switch_cpus.num_fp_alu_accesses              0                       # Number of float alu accesses
system.switch_cpus.num_fp_insts                     0                       # number of float instructions
system.switch_cpus.num_fp_register_reads            0                       # number of times the floating registers were read
system.switch_cpus.num_fp_register_writes            0                       # number of times the floating registers were written
system.switch_cpus.num_func_calls                   0                       # number of times a function call or return occured
system.switch_cpus.num_idle_cycles                  0                       # Number of idle cycles
system.switch_cpus.num_int_alu_accesses             0                       # Number of integer alu accesses
system.switch_cpus.num_int_insts                    0                       # number of integer instructions
system.switch_cpus.num_int_register_reads            0                       # number of times the integer registers were read
system.switch_cpus.num_int_register_writes            0                       # number of times the integer registers were written
system.switch_cpus.num_load_insts                   0                       # Number of load instructions
system.switch_cpus.num_mem_refs                     0                       # number of memory refs
system.switch_cpus.num_store_insts                  0                       # Number of store instructions
system.switch_cpus.num_vec_alu_accesses             0                       # Number of vector alu accesses
system.switch_cpus.num_vec_insts                    0                       # number of vector instructions
system.switch_cpus.num_vec_register_reads            0                       # number of times the vector registers were read
system.switch_cpus.num_vec_register_writes            0                       # number of times the vector registers were written
system.switch_cpus.op_class::No_OpClass             0                       # Class of executed instruction
system.switch_cpus.op_class::IntAlu                 0                       # Class of executed instruction
system.switch_cpus.op_class::IntMult                0                       # Class of executed instruction
system.switch_cpus.op_class::IntDiv                 0                       # Class of executed instruction
system.switch_cpus.op_class::FloatAdd               0                       # Class of executed instruction
system.switch_cpus.op_class::FloatCmp               0                       # Class of executed instruction
system.switch_cpus.op_class::FloatCvt               0                       # Class of executed instruction
system.switch_cpus.op_class::FloatMult              0                       # Class of executed instruction
system.switch_cpus.op_class::FloatMultAcc            0                       # Class of executed instruction
system.switch_cpus.op_class::FloatDiv               0                       # Class of executed instruction
system.switch_cpus.op_class::FloatMisc              0                       # Class of executed instruction
system.switch_cpus.op_class::FloatSqrt              0                       # Class of executed instruction
system.switch_cpus.op_class::SimdAdd                0                       # Class of executed instruction
system.switch_cpus.op_class::SimdAddAcc             0                       # Class of executed instruction
system.switch_cpus.op_class::SimdAlu                0                       # Class of executed instruction
system.switch_cpus.op_class::SimdCmp                0                       # Class of executed instruction
system.switch_cpus.op_class::SimdCvt                0                       # Class of executed instruction
system.switch_cpus.op_class::SimdMisc               0                       # Class of executed instruction
system.switch_cpus.op_class::SimdMult               0                       # Class of executed instruction
system.switch_cpus.op_class::SimdMultAcc            0                       # Class of executed instruction
system.switch_cpus.op_class::SimdShift              0                       # Class of executed instruction
system.switch_cpus.op_class::SimdShiftAcc            0                       # Class of executed instruction
system.switch_cpus.op_class::SimdDiv                0                       # Class of executed instruction
system.switch_cpus.op_class::SimdSqrt               0                       # Class of executed instruction
system.switch_cpus.op_class::SimdFloatAdd            0                       # Class of executed instruction
system.switch_cpus.op_class::SimdFloatAlu            0                       # Class of executed instruction
system.switch_cpus.op_class::SimdFloatCmp            0                       # Class of executed instruction
system.switch_cpus.op_class::SimdFloatCvt            0                       # Class of executed instruction
system.switch_cpus.op_class::SimdFloatDiv            0                       # Class of executed instruction
system.switch_cpus.op_class::SimdFloatMisc            0                       # Class of executed instruction
system.switch_cpus.op_class::SimdFloatMult            0                       # Class of executed instruction
system.switch_cpus.op_class::SimdFloatMultAcc            0                       # Class of executed instruction
system.switch_cpus.op_class::SimdFloatSqrt            0                       # Class of executed instruction
system.switch_cpus.op_class::SimdReduceAdd            0                       # Class of executed instruction
system.switch_cpus.op_class::SimdReduceAlu            0                       # Class of executed instruction
system.switch_cpus.op_class::SimdReduceCmp            0                       # Class of executed instruction
system.switch_cpus.op_class::SimdFloatReduceAdd            0                       # Class of executed instruction
system.switch_cpus.op_class::SimdFloatReduceCmp            0                       # Class of executed instruction
system.switch_cpus.op_class::SimdAes                0                       # Class of executed instruction
system.switch_cpus.op_class::SimdAesMix             0                       # Class of executed instruction
system.switch_cpus.op_class::SimdSha1Hash            0                       # Class of executed instruction
system.switch_cpus.op_class::SimdSha1Hash2            0                       # Class of executed instruction
system.switch_cpus.op_class::SimdSha256Hash            0                       # Class of executed instruction
system.switch_cpus.op_class::SimdSha256Hash2            0                       # Class of executed instruction
system.switch_cpus.op_class::SimdShaSigma2            0                       # Class of executed instruction
system.switch_cpus.op_class::SimdShaSigma3            0                       # Class of executed instruction
system.switch_cpus.op_class::SimdPredAlu            0                       # Class of executed instruction
system.switch_cpus.op_class::MemRead                0                       # Class of executed instruction
system.switch_cpus.op_class::MemWrite               0                       # Class of executed instruction
system.switch_cpus.op_class::FloatMemRead            0                       # Class of executed instruction
system.switch_cpus.op_class::FloatMemWrite            0                       # Class of executed instruction
system.switch_cpus.op_class::IprAccess              0                       # Class of executed instruction
system.switch_cpus.op_class::InstPrefetch            0                       # Class of executed instruction
system.switch_cpus.op_class::total                  0                       # Class of executed instruction
system.switch_cpus_1.branchPred.BTBCorrect            0                       # Number of correct BTB predictions (this stat may not work properly.
system.switch_cpus_1.branchPred.BTBHitPct          nan                       # BTB Hit Percentage
system.switch_cpus_1.branchPred.BTBHits             0                       # Number of BTB hits
system.switch_cpus_1.branchPred.BTBLookups            0                       # Number of BTB lookups
system.switch_cpus_1.branchPred.RASInCorrect        11136                       # Number of incorrect RAS predictions.
system.switch_cpus_1.branchPred.condIncorrect     73450209                       # Number of conditional branches incorrect
system.switch_cpus_1.branchPred.condPredicted    626874531                       # Number of conditional branches predicted
system.switch_cpus_1.branchPred.indirectHits     94617969                       # Number of indirect target hits.
system.switch_cpus_1.branchPred.indirectLookups    390527135                       # Number of indirect predictor lookups.
system.switch_cpus_1.branchPred.indirectMisses    295909166                       # Number of indirect misses.
system.switch_cpus_1.branchPred.lookups     728305640                       # Number of BP lookups
system.switch_cpus_1.branchPred.loop_predictor.loopPredictorCorrect       547224                       # Number of times the loop predictor is the provider and the prediction is correct
system.switch_cpus_1.branchPred.loop_predictor.loopPredictorWrong        28968                       # Number of times the loop predictor is the provider and the prediction is wrong
system.switch_cpus_1.branchPred.statistical_corrector.scPredictorCorrect      2130351                       # Number of time the SC predictor is the provider and the prediction is correct
system.switch_cpus_1.branchPred.statistical_corrector.scPredictorWrong      3683234                       # Number of time the SC predictor is the provider and the prediction is wrong
system.switch_cpus_1.branchPred.tage.bimodalAltMatchProviderCorrect      2002362                       # Number of times TAGE Alt Match is the bimodal and it is the provider and the prediction is correct
system.switch_cpus_1.branchPred.tage.bimodalAltMatchProviderWrong       649553                       # Number of times TAGE Alt Match is the bimodal and it is the provider and the prediction is wrong
system.switch_cpus_1.branchPred.tage.tageAltMatchProvider::0     36891187                       # TAGE provider for alt match
system.switch_cpus_1.branchPred.tage.tageAltMatchProvider::1            0                       # TAGE provider for alt match
system.switch_cpus_1.branchPred.tage.tageAltMatchProvider::2      4207220                       # TAGE provider for alt match
system.switch_cpus_1.branchPred.tage.tageAltMatchProvider::3            0                       # TAGE provider for alt match
system.switch_cpus_1.branchPred.tage.tageAltMatchProvider::4      4010096                       # TAGE provider for alt match
system.switch_cpus_1.branchPred.tage.tageAltMatchProvider::5            0                       # TAGE provider for alt match
system.switch_cpus_1.branchPred.tage.tageAltMatchProvider::6      2513419                       # TAGE provider for alt match
system.switch_cpus_1.branchPred.tage.tageAltMatchProvider::7      3158507                       # TAGE provider for alt match
system.switch_cpus_1.branchPred.tage.tageAltMatchProvider::8      2793689                       # TAGE provider for alt match
system.switch_cpus_1.branchPred.tage.tageAltMatchProvider::9      2448836                       # TAGE provider for alt match
system.switch_cpus_1.branchPred.tage.tageAltMatchProvider::10      2395260                       # TAGE provider for alt match
system.switch_cpus_1.branchPred.tage.tageAltMatchProvider::11      2336096                       # TAGE provider for alt match
system.switch_cpus_1.branchPred.tage.tageAltMatchProvider::12      2353428                       # TAGE provider for alt match
system.switch_cpus_1.branchPred.tage.tageAltMatchProvider::13      1523053                       # TAGE provider for alt match
system.switch_cpus_1.branchPred.tage.tageAltMatchProvider::14      1352216                       # TAGE provider for alt match
system.switch_cpus_1.branchPred.tage.tageAltMatchProvider::15       732868                       # TAGE provider for alt match
system.switch_cpus_1.branchPred.tage.tageAltMatchProvider::16       698592                       # TAGE provider for alt match
system.switch_cpus_1.branchPred.tage.tageAltMatchProvider::17       304070                       # TAGE provider for alt match
system.switch_cpus_1.branchPred.tage.tageAltMatchProvider::18       301498                       # TAGE provider for alt match
system.switch_cpus_1.branchPred.tage.tageAltMatchProvider::19       108429                       # TAGE provider for alt match
system.switch_cpus_1.branchPred.tage.tageAltMatchProvider::20        94833                       # TAGE provider for alt match
system.switch_cpus_1.branchPred.tage.tageAltMatchProvider::21            0                       # TAGE provider for alt match
system.switch_cpus_1.branchPred.tage.tageAltMatchProvider::22        38085                       # TAGE provider for alt match
system.switch_cpus_1.branchPred.tage.tageAltMatchProvider::23            0                       # TAGE provider for alt match
system.switch_cpus_1.branchPred.tage.tageAltMatchProvider::24        15938                       # TAGE provider for alt match
system.switch_cpus_1.branchPred.tage.tageAltMatchProvider::25            0                       # TAGE provider for alt match
system.switch_cpus_1.branchPred.tage.tageAltMatchProvider::26         4705                       # TAGE provider for alt match
system.switch_cpus_1.branchPred.tage.tageAltMatchProvider::27            0                       # TAGE provider for alt match
system.switch_cpus_1.branchPred.tage.tageAltMatchProvider::28          884                       # TAGE provider for alt match
system.switch_cpus_1.branchPred.tage.tageAltMatchProvider::29            0                       # TAGE provider for alt match
system.switch_cpus_1.branchPred.tage.tageAltMatchProvider::30            0                       # TAGE provider for alt match
system.switch_cpus_1.branchPred.tage.tageAltMatchProviderCorrect      3119842                       # Number of times TAGE Alt Match is the provider and the prediction is correct
system.switch_cpus_1.branchPred.tage.tageAltMatchProviderWouldHaveHit      2631138                       # Number of times TAGE Longest Match is the provider, the prediction is wrong and Alt Match prediction was correct
system.switch_cpus_1.branchPred.tage.tageAltMatchProviderWrong      1247899                       # Number of times TAGE Alt Match is the provider and the prediction is wrong
system.switch_cpus_1.branchPred.tage.tageBimodalProviderCorrect    128983667                       # Number of times there are no hits on the TAGE tables and the bimodal prediction is correct
system.switch_cpus_1.branchPred.tage.tageBimodalProviderWrong      4145791                       # Number of times there are no hits on the TAGE tables and the bimodal prediction is wrong
system.switch_cpus_1.branchPred.tage.tageLongestMatchProvider::0            0                       # TAGE provider for longest match
system.switch_cpus_1.branchPred.tage.tageLongestMatchProvider::1            0                       # TAGE provider for longest match
system.switch_cpus_1.branchPred.tage.tageLongestMatchProvider::2      6517337                       # TAGE provider for longest match
system.switch_cpus_1.branchPred.tage.tageLongestMatchProvider::3            0                       # TAGE provider for longest match
system.switch_cpus_1.branchPred.tage.tageLongestMatchProvider::4      6470318                       # TAGE provider for longest match
system.switch_cpus_1.branchPred.tage.tageLongestMatchProvider::5            0                       # TAGE provider for longest match
system.switch_cpus_1.branchPred.tage.tageLongestMatchProvider::6      4285135                       # TAGE provider for longest match
system.switch_cpus_1.branchPred.tage.tageLongestMatchProvider::7      6047670                       # TAGE provider for longest match
system.switch_cpus_1.branchPred.tage.tageLongestMatchProvider::8      5100167                       # TAGE provider for longest match
system.switch_cpus_1.branchPred.tage.tageLongestMatchProvider::9      4302119                       # TAGE provider for longest match
system.switch_cpus_1.branchPred.tage.tageLongestMatchProvider::10      4902114                       # TAGE provider for longest match
system.switch_cpus_1.branchPred.tage.tageLongestMatchProvider::11      5681037                       # TAGE provider for longest match
system.switch_cpus_1.branchPred.tage.tageLongestMatchProvider::12      5644762                       # TAGE provider for longest match
system.switch_cpus_1.branchPred.tage.tageLongestMatchProvider::13      4144838                       # TAGE provider for longest match
system.switch_cpus_1.branchPred.tage.tageLongestMatchProvider::14      4033005                       # TAGE provider for longest match
system.switch_cpus_1.branchPred.tage.tageLongestMatchProvider::15      2883713                       # TAGE provider for longest match
system.switch_cpus_1.branchPred.tage.tageLongestMatchProvider::16      2696926                       # TAGE provider for longest match
system.switch_cpus_1.branchPred.tage.tageLongestMatchProvider::17      1582221                       # TAGE provider for longest match
system.switch_cpus_1.branchPred.tage.tageLongestMatchProvider::18      1491013                       # TAGE provider for longest match
system.switch_cpus_1.branchPred.tage.tageLongestMatchProvider::19       847216                       # TAGE provider for longest match
system.switch_cpus_1.branchPred.tage.tageLongestMatchProvider::20       885422                       # TAGE provider for longest match
system.switch_cpus_1.branchPred.tage.tageLongestMatchProvider::21            0                       # TAGE provider for longest match
system.switch_cpus_1.branchPred.tage.tageLongestMatchProvider::22       377816                       # TAGE provider for longest match
system.switch_cpus_1.branchPred.tage.tageLongestMatchProvider::23            0                       # TAGE provider for longest match
system.switch_cpus_1.branchPred.tage.tageLongestMatchProvider::24       193011                       # TAGE provider for longest match
system.switch_cpus_1.branchPred.tage.tageLongestMatchProvider::25            0                       # TAGE provider for longest match
system.switch_cpus_1.branchPred.tage.tageLongestMatchProvider::26       102337                       # TAGE provider for longest match
system.switch_cpus_1.branchPred.tage.tageLongestMatchProvider::27            0                       # TAGE provider for longest match
system.switch_cpus_1.branchPred.tage.tageLongestMatchProvider::28        56452                       # TAGE provider for longest match
system.switch_cpus_1.branchPred.tage.tageLongestMatchProvider::29            0                       # TAGE provider for longest match
system.switch_cpus_1.branchPred.tage.tageLongestMatchProvider::30        38280                       # TAGE provider for longest match
system.switch_cpus_1.branchPred.tage.tageLongestMatchProviderCorrect     58117446                       # Number of times TAGE Longest Match is the provider and the prediction is correct
system.switch_cpus_1.branchPred.tage.tageLongestMatchProviderWouldHaveHit      1148774                       # Number of times TAGE Alt Match is the provider, the prediction is wrong and Longest Match prediction was correct
system.switch_cpus_1.branchPred.tage.tageLongestMatchProviderWrong      5797722                       # Number of times TAGE Longest Match is the provider and the prediction is wrong
system.switch_cpus_1.branchPred.usedRAS      31729439                       # Number of times the RAS was used to get a target.
system.switch_cpus_1.branchPredindirectMispredicted     60545331                       # Number of mispredicted indirect branches.
system.switch_cpus_1.cc_regfile_reads      1402742584                       # number of cc regfile reads
system.switch_cpus_1.cc_regfile_writes      945701802                       # number of cc regfile writes
system.switch_cpus_1.commit.amos                    0                       # Number of atomic instructions committed
system.switch_cpus_1.commit.branchMispredicts     73450219                       # The number of times a branch was mispredicted
system.switch_cpus_1.commit.branches        229908758                       # Number of branches committed
system.switch_cpus_1.commit.bw_lim_events     97767997                       # number cycles where commit BW limit reached
system.switch_cpus_1.commit.commitNonSpecStalls           48                       # The number of times commit has been forced to stall to communicate backwards
system.switch_cpus_1.commit.commitSquashedInsts   2147652918                       # The number of squashed insts skipped by commit
system.switch_cpus_1.commit.committedInsts   1000000000                       # Number of instructions committed
system.switch_cpus_1.commit.committedOps   1892299047                       # Number of ops (including micro ops) committed
system.switch_cpus_1.commit.committed_per_cycle::samples   1152119869                       # Number of insts commited each cycle
system.switch_cpus_1.commit.committed_per_cycle::mean     1.642450                       # Number of insts commited each cycle
system.switch_cpus_1.commit.committed_per_cycle::stdev     2.511473                       # Number of insts commited each cycle
system.switch_cpus_1.commit.committed_per_cycle::underflows            0      0.00%      0.00% # Number of insts commited each cycle
system.switch_cpus_1.commit.committed_per_cycle::0    622316499     54.01%     54.01% # Number of insts commited each cycle
system.switch_cpus_1.commit.committed_per_cycle::1    168298988     14.61%     68.62% # Number of insts commited each cycle
system.switch_cpus_1.commit.committed_per_cycle::2     68811578      5.97%     74.60% # Number of insts commited each cycle
system.switch_cpus_1.commit.committed_per_cycle::3     92465064      8.03%     82.62% # Number of insts commited each cycle
system.switch_cpus_1.commit.committed_per_cycle::4     41183238      3.57%     86.20% # Number of insts commited each cycle
system.switch_cpus_1.commit.committed_per_cycle::5     24717706      2.15%     88.34% # Number of insts commited each cycle
system.switch_cpus_1.commit.committed_per_cycle::6     17395340      1.51%     89.85% # Number of insts commited each cycle
system.switch_cpus_1.commit.committed_per_cycle::7     19163459      1.66%     91.51% # Number of insts commited each cycle
system.switch_cpus_1.commit.committed_per_cycle::8     97767997      8.49%    100.00% # Number of insts commited each cycle
system.switch_cpus_1.commit.committed_per_cycle::overflows            0      0.00%    100.00% # Number of insts commited each cycle
system.switch_cpus_1.commit.committed_per_cycle::min_value            0                       # Number of insts commited each cycle
system.switch_cpus_1.commit.committed_per_cycle::max_value            8                       # Number of insts commited each cycle
system.switch_cpus_1.commit.committed_per_cycle::total   1152119869                       # Number of insts commited each cycle
system.switch_cpus_1.commit.fp_insts             5665                       # Number of committed floating point instructions.
system.switch_cpus_1.commit.function_calls      9729213                       # Number of function calls committed.
system.switch_cpus_1.commit.int_insts      1885841309                       # Number of committed integer instructions.
system.switch_cpus_1.commit.loads           241042932                       # Number of loads committed
system.switch_cpus_1.commit.membars                 0                       # Number of memory barriers committed
system.switch_cpus_1.commit.op_class_0::No_OpClass      6152409      0.33%      0.33% # Class of committed instruction
system.switch_cpus_1.commit.op_class_0::IntAlu   1543783863     81.58%     81.91% # Class of committed instruction
system.switch_cpus_1.commit.op_class_0::IntMult       177059      0.01%     81.92% # Class of committed instruction
system.switch_cpus_1.commit.op_class_0::IntDiv      4800256      0.25%     82.17% # Class of committed instruction
system.switch_cpus_1.commit.op_class_0::FloatAdd          245      0.00%     82.17% # Class of committed instruction
system.switch_cpus_1.commit.op_class_0::FloatCmp            0      0.00%     82.17% # Class of committed instruction
system.switch_cpus_1.commit.op_class_0::FloatCvt            0      0.00%     82.17% # Class of committed instruction
system.switch_cpus_1.commit.op_class_0::FloatMult            0      0.00%     82.17% # Class of committed instruction
system.switch_cpus_1.commit.op_class_0::FloatMultAcc            0      0.00%     82.17% # Class of committed instruction
system.switch_cpus_1.commit.op_class_0::FloatDiv            0      0.00%     82.17% # Class of committed instruction
system.switch_cpus_1.commit.op_class_0::FloatMisc            0      0.00%     82.17% # Class of committed instruction
system.switch_cpus_1.commit.op_class_0::FloatSqrt            0      0.00%     82.17% # Class of committed instruction
system.switch_cpus_1.commit.op_class_0::SimdAdd            0      0.00%     82.17% # Class of committed instruction
system.switch_cpus_1.commit.op_class_0::SimdAddAcc            0      0.00%     82.17% # Class of committed instruction
system.switch_cpus_1.commit.op_class_0::SimdAlu          536      0.00%     82.17% # Class of committed instruction
system.switch_cpus_1.commit.op_class_0::SimdCmp            0      0.00%     82.17% # Class of committed instruction
system.switch_cpus_1.commit.op_class_0::SimdCvt          994      0.00%     82.17% # Class of committed instruction
system.switch_cpus_1.commit.op_class_0::SimdMisc         2591      0.00%     82.17% # Class of committed instruction
system.switch_cpus_1.commit.op_class_0::SimdMult            0      0.00%     82.17% # Class of committed instruction
system.switch_cpus_1.commit.op_class_0::SimdMultAcc            0      0.00%     82.17% # Class of committed instruction
system.switch_cpus_1.commit.op_class_0::SimdShift            0      0.00%     82.17% # Class of committed instruction
system.switch_cpus_1.commit.op_class_0::SimdShiftAcc            0      0.00%     82.17% # Class of committed instruction
system.switch_cpus_1.commit.op_class_0::SimdDiv            0      0.00%     82.17% # Class of committed instruction
system.switch_cpus_1.commit.op_class_0::SimdSqrt            0      0.00%     82.17% # Class of committed instruction
system.switch_cpus_1.commit.op_class_0::SimdFloatAdd            0      0.00%     82.17% # Class of committed instruction
system.switch_cpus_1.commit.op_class_0::SimdFloatAlu            0      0.00%     82.17% # Class of committed instruction
system.switch_cpus_1.commit.op_class_0::SimdFloatCmp            0      0.00%     82.17% # Class of committed instruction
system.switch_cpus_1.commit.op_class_0::SimdFloatCvt           10      0.00%     82.17% # Class of committed instruction
system.switch_cpus_1.commit.op_class_0::SimdFloatDiv            1      0.00%     82.17% # Class of committed instruction
system.switch_cpus_1.commit.op_class_0::SimdFloatMisc            0      0.00%     82.17% # Class of committed instruction
system.switch_cpus_1.commit.op_class_0::SimdFloatMult            1      0.00%     82.17% # Class of committed instruction
system.switch_cpus_1.commit.op_class_0::SimdFloatMultAcc            0      0.00%     82.17% # Class of committed instruction
system.switch_cpus_1.commit.op_class_0::SimdFloatSqrt            0      0.00%     82.17% # Class of committed instruction
system.switch_cpus_1.commit.op_class_0::SimdReduceAdd            0      0.00%     82.17% # Class of committed instruction
system.switch_cpus_1.commit.op_class_0::SimdReduceAlu            0      0.00%     82.17% # Class of committed instruction
system.switch_cpus_1.commit.op_class_0::SimdReduceCmp            0      0.00%     82.17% # Class of committed instruction
system.switch_cpus_1.commit.op_class_0::SimdFloatReduceAdd            0      0.00%     82.17% # Class of committed instruction
system.switch_cpus_1.commit.op_class_0::SimdFloatReduceCmp            0      0.00%     82.17% # Class of committed instruction
system.switch_cpus_1.commit.op_class_0::SimdAes            0      0.00%     82.17% # Class of committed instruction
system.switch_cpus_1.commit.op_class_0::SimdAesMix            0      0.00%     82.17% # Class of committed instruction
system.switch_cpus_1.commit.op_class_0::SimdSha1Hash            0      0.00%     82.17% # Class of committed instruction
system.switch_cpus_1.commit.op_class_0::SimdSha1Hash2            0      0.00%     82.17% # Class of committed instruction
system.switch_cpus_1.commit.op_class_0::SimdSha256Hash            0      0.00%     82.17% # Class of committed instruction
system.switch_cpus_1.commit.op_class_0::SimdSha256Hash2            0      0.00%     82.17% # Class of committed instruction
system.switch_cpus_1.commit.op_class_0::SimdShaSigma2            0      0.00%     82.17% # Class of committed instruction
system.switch_cpus_1.commit.op_class_0::SimdShaSigma3            0      0.00%     82.17% # Class of committed instruction
system.switch_cpus_1.commit.op_class_0::SimdPredAlu            0      0.00%     82.17% # Class of committed instruction
system.switch_cpus_1.commit.op_class_0::MemRead    241042380     12.74%     94.91% # Class of committed instruction
system.switch_cpus_1.commit.op_class_0::MemWrite     96338141      5.09%    100.00% # Class of committed instruction
system.switch_cpus_1.commit.op_class_0::FloatMemRead          552      0.00%    100.00% # Class of committed instruction
system.switch_cpus_1.commit.op_class_0::FloatMemWrite            9      0.00%    100.00% # Class of committed instruction
system.switch_cpus_1.commit.op_class_0::IprAccess            0      0.00%    100.00% # Class of committed instruction
system.switch_cpus_1.commit.op_class_0::InstPrefetch            0      0.00%    100.00% # Class of committed instruction
system.switch_cpus_1.commit.op_class_0::total   1892299047                       # Class of committed instruction
system.switch_cpus_1.commit.refs            337381082                       # Number of memory references committed
system.switch_cpus_1.commit.swp_count               0                       # Number of s/w prefetches committed
system.switch_cpus_1.commit.vec_insts               0                       # Number of committed Vector instructions.
system.switch_cpus_1.committedInsts        1000000000                       # Number of Instructions Simulated
system.switch_cpus_1.committedOps          1892299047                       # Number of Ops (including micro ops) Simulated
system.switch_cpus_1.cpi                     1.486823                       # CPI: Cycles Per Instruction
system.switch_cpus_1.cpi_total               1.486823                       # CPI: Total CPI of All Threads
system.switch_cpus_1.decode.BlockedCycles    413007392                       # Number of cycles decode is blocked
system.switch_cpus_1.decode.DecodedInsts   5017971815                       # Number of instructions handled by decode
system.switch_cpus_1.decode.IdleCycles      318593962                       # Number of cycles decode is idle
system.switch_cpus_1.decode.RunCycles       533608019                       # Number of cycles decode is running
system.switch_cpus_1.decode.SquashCycles     73534192                       # Number of cycles decode is squashing
system.switch_cpus_1.decode.UnblockCycles    139880917                       # Number of cycles decode is unblocking
system.switch_cpus_1.dtb.rdAccesses         335320190                       # TLB accesses on read requests
system.switch_cpus_1.dtb.rdMisses              875746                       # TLB misses on read requests
system.switch_cpus_1.dtb.wrAccesses         119230691                       # TLB accesses on write requests
system.switch_cpus_1.dtb.wrMisses              302480                       # TLB misses on write requests
system.switch_cpus_1.fetch.Branches         728305640                       # Number of branches that fetch encountered
system.switch_cpus_1.fetch.CacheLines       327645014                       # Number of cache lines fetched
system.switch_cpus_1.fetch.Cycles           976750333                       # Number of cycles fetch has run and was not squashing or blocked
system.switch_cpus_1.fetch.IcacheSquashes     18522739                       # Number of outstanding Icache misses that were squashed
system.switch_cpus_1.fetch.IcacheWaitRetryStallCycles           22                       # Number of stall cycles due to full MSHR
system.switch_cpus_1.fetch.Insts           3163590009                       # Number of instructions fetch has processed
system.switch_cpus_1.fetch.MiscStallCycles           13                       # Number of cycles fetch has spent waiting on interrupts, or bad addresses, or out of MSHRs
system.switch_cpus_1.fetch.PendingTrapStallCycles          163                       # Number of stall cycles due to pending traps
system.switch_cpus_1.fetch.SquashCycles     147068384                       # Number of cycles fetch has spent squashing
system.switch_cpus_1.fetch.branchRate        0.489840                       # Number of branch fetches per cycle
system.switch_cpus_1.fetch.icacheStallCycles    428339765                       # Number of cycles fetch is stalled on an Icache miss
system.switch_cpus_1.fetch.predictedBranches    126347408                       # Number of branches that fetch has predicted taken
system.switch_cpus_1.fetch.rate              2.127752                       # Number of inst fetches per cycle
system.switch_cpus_1.fetch.rateDist::samples   1478624488                       # Number of instructions fetched each cycle (Total)
system.switch_cpus_1.fetch.rateDist::mean     4.061154                       # Number of instructions fetched each cycle (Total)
system.switch_cpus_1.fetch.rateDist::stdev     3.658107                       # Number of instructions fetched each cycle (Total)
system.switch_cpus_1.fetch.rateDist::underflows            0      0.00%      0.00% # Number of instructions fetched each cycle (Total)
system.switch_cpus_1.fetch.rateDist::0      576735291     39.00%     39.00% # Number of instructions fetched each cycle (Total)
system.switch_cpus_1.fetch.rateDist::1       33135688      2.24%     41.25% # Number of instructions fetched each cycle (Total)
system.switch_cpus_1.fetch.rateDist::2       49690835      3.36%     44.61% # Number of instructions fetched each cycle (Total)
system.switch_cpus_1.fetch.rateDist::3       37317928      2.52%     47.13% # Number of instructions fetched each cycle (Total)
system.switch_cpus_1.fetch.rateDist::4       41781255      2.83%     49.96% # Number of instructions fetched each cycle (Total)
system.switch_cpus_1.fetch.rateDist::5       58789532      3.98%     53.93% # Number of instructions fetched each cycle (Total)
system.switch_cpus_1.fetch.rateDist::6       61284862      4.14%     58.08% # Number of instructions fetched each cycle (Total)
system.switch_cpus_1.fetch.rateDist::7       27444641      1.86%     59.93% # Number of instructions fetched each cycle (Total)
system.switch_cpus_1.fetch.rateDist::8      592444456     40.07%    100.00% # Number of instructions fetched each cycle (Total)
system.switch_cpus_1.fetch.rateDist::overflows            0      0.00%    100.00% # Number of instructions fetched each cycle (Total)
system.switch_cpus_1.fetch.rateDist::min_value            0                       # Number of instructions fetched each cycle (Total)
system.switch_cpus_1.fetch.rateDist::max_value            8                       # Number of instructions fetched each cycle (Total)
system.switch_cpus_1.fetch.rateDist::total   1478624488                       # Number of instructions fetched each cycle (Total)
system.switch_cpus_1.fp_regfile_reads           13572                       # number of floating regfile reads
system.switch_cpus_1.fp_regfile_writes           6301                       # number of floating regfile writes
system.switch_cpus_1.idleCycles               8198461                       # Total number of cycles that the CPU has spent unscheduled due to idling
system.switch_cpus_1.iew.branchMispredicts     95615743                       # Number of branch mispredicts detected at execute
system.switch_cpus_1.iew.exec_branches      301127233                       # Number of branches executed
system.switch_cpus_1.iew.exec_nop                   0                       # number of nop insts executed
system.switch_cpus_1.iew.exec_rate           1.899677                       # Inst execution rate
system.switch_cpus_1.iew.exec_refs          464170774                       # number of memory reference insts executed
system.switch_cpus_1.iew.exec_stores        119230571                       # Number of stores executed
system.switch_cpus_1.iew.exec_swp                   0                       # number of swp insts executed
system.switch_cpus_1.iew.iewBlockCycles     253721250                       # Number of cycles IEW is blocking
system.switch_cpus_1.iew.iewDispLoadInsts    503512617                       # Number of dispatched load instructions
system.switch_cpus_1.iew.iewDispNonSpecInsts           96                       # Number of dispatched non-speculative instructions
system.switch_cpus_1.iew.iewDispSquashedInsts      1208178                       # Number of squashed instructions skipped by dispatch
system.switch_cpus_1.iew.iewDispStoreInsts    207396012                       # Number of dispatched store instructions
system.switch_cpus_1.iew.iewDispatchedInsts   4039939071                       # Number of instructions dispatched to IQ
system.switch_cpus_1.iew.iewExecLoadInsts    344940203                       # Number of load instructions executed
system.switch_cpus_1.iew.iewExecSquashedInsts     55766116                       # Number of squashed instructions skipped in execute
system.switch_cpus_1.iew.iewExecutedInsts   2824483677                       # Number of executed instructions
system.switch_cpus_1.iew.iewIQFullEvents       249481                       # Number of times the IQ has become full, causing a stall
system.switch_cpus_1.iew.iewIdleCycles              0                       # Number of cycles IEW is idle
system.switch_cpus_1.iew.iewLSQFullEvents       203507                       # Number of times the LSQ has become full, causing a stall
system.switch_cpus_1.iew.iewSquashCycles     73534192                       # Number of cycles IEW is squashing
system.switch_cpus_1.iew.iewUnblockCycles       496832                       # Number of cycles IEW is unblocking
system.switch_cpus_1.iew.lsq.thread0.blockedLoads            0                       # Number of blocked loads due to partial load-store forwarding
system.switch_cpus_1.iew.lsq.thread0.cacheBlocked         1152                       # Number of times an access to memory failed due to the cache being blocked
system.switch_cpus_1.iew.lsq.thread0.forwLoads      9991221                       # Number of loads that had data forwarded from stores
system.switch_cpus_1.iew.lsq.thread0.ignoredResponses       352228                       # Number of memory responses ignored because the instruction is squashed
system.switch_cpus_1.iew.lsq.thread0.invAddrLoads            0                       # Number of loads ignored due to an invalid address
system.switch_cpus_1.iew.lsq.thread0.invAddrSwpfs            0                       # Number of software prefetches ignored due to an invalid address
system.switch_cpus_1.iew.lsq.thread0.memOrderViolation       116078                       # Number of memory ordering violations
system.switch_cpus_1.iew.lsq.thread0.rescheduledLoads          189                       # Number of loads that were rescheduled
system.switch_cpus_1.iew.lsq.thread0.squashedLoads    262469678                       # Number of loads squashed
system.switch_cpus_1.iew.lsq.thread0.squashedStores    111057860                       # Number of stores squashed
system.switch_cpus_1.iew.memOrderViolationEvents       116078                       # Number of memory order violations
system.switch_cpus_1.iew.predictedNotTakenIncorrect     91152095                       # Number of branches that were predicted not taken incorrectly
system.switch_cpus_1.iew.predictedTakenIncorrect      4463648                       # Number of branches that were predicted taken incorrectly
system.switch_cpus_1.iew.wb_consumers      2991814247                       # num instructions consuming a value
system.switch_cpus_1.iew.wb_count          2773208554                       # cumulative count of insts written-back
system.switch_cpus_1.iew.wb_fanout           0.690993                       # average fanout of values written-back
system.switch_cpus_1.iew.wb_producers      2067324181                       # num instructions producing a value
system.switch_cpus_1.iew.wb_rate             1.865191                       # insts written-back per cycle
system.switch_cpus_1.iew.wb_sent           2789741743                       # cumulative count of insts sent to commit
system.switch_cpus_1.int_regfile_reads     3349673436                       # number of integer regfile reads
system.switch_cpus_1.int_regfile_writes    2346320520                       # number of integer regfile writes
system.switch_cpus_1.ipc                     0.672575                       # IPC: Instructions Per Cycle
system.switch_cpus_1.ipc_total               0.672575                       # IPC: Total IPC of All Threads
system.switch_cpus_1.iq.FU_type_0::No_OpClass     32621304      1.13%      1.13% # Type of FU issued
system.switch_cpus_1.iq.FU_type_0::IntAlu   2339788732     81.24%     82.37% # Type of FU issued
system.switch_cpus_1.iq.FU_type_0::IntMult       262542      0.01%     82.38% # Type of FU issued
system.switch_cpus_1.iq.FU_type_0::IntDiv      4953638      0.17%     82.55% # Type of FU issued
system.switch_cpus_1.iq.FU_type_0::FloatAdd          266      0.00%     82.55% # Type of FU issued
system.switch_cpus_1.iq.FU_type_0::FloatCmp            0      0.00%     82.55% # Type of FU issued
system.switch_cpus_1.iq.FU_type_0::FloatCvt            0      0.00%     82.55% # Type of FU issued
system.switch_cpus_1.iq.FU_type_0::FloatMult            0      0.00%     82.55% # Type of FU issued
system.switch_cpus_1.iq.FU_type_0::FloatMultAcc            0      0.00%     82.55% # Type of FU issued
system.switch_cpus_1.iq.FU_type_0::FloatDiv            0      0.00%     82.55% # Type of FU issued
system.switch_cpus_1.iq.FU_type_0::FloatMisc            0      0.00%     82.55% # Type of FU issued
system.switch_cpus_1.iq.FU_type_0::FloatSqrt            0      0.00%     82.55% # Type of FU issued
system.switch_cpus_1.iq.FU_type_0::SimdAdd            0      0.00%     82.55% # Type of FU issued
system.switch_cpus_1.iq.FU_type_0::SimdAddAcc            0      0.00%     82.55% # Type of FU issued
system.switch_cpus_1.iq.FU_type_0::SimdAlu          579      0.00%     82.55% # Type of FU issued
system.switch_cpus_1.iq.FU_type_0::SimdCmp            0      0.00%     82.55% # Type of FU issued
system.switch_cpus_1.iq.FU_type_0::SimdCvt         1664      0.00%     82.55% # Type of FU issued
system.switch_cpus_1.iq.FU_type_0::SimdMisc         3377      0.00%     82.55% # Type of FU issued
system.switch_cpus_1.iq.FU_type_0::SimdMult            0      0.00%     82.55% # Type of FU issued
system.switch_cpus_1.iq.FU_type_0::SimdMultAcc            0      0.00%     82.55% # Type of FU issued
system.switch_cpus_1.iq.FU_type_0::SimdShift            0      0.00%     82.55% # Type of FU issued
system.switch_cpus_1.iq.FU_type_0::SimdShiftAcc            0      0.00%     82.55% # Type of FU issued
system.switch_cpus_1.iq.FU_type_0::SimdDiv            0      0.00%     82.55% # Type of FU issued
system.switch_cpus_1.iq.FU_type_0::SimdSqrt            0      0.00%     82.55% # Type of FU issued
system.switch_cpus_1.iq.FU_type_0::SimdFloatAdd            0      0.00%     82.55% # Type of FU issued
system.switch_cpus_1.iq.FU_type_0::SimdFloatAlu            0      0.00%     82.55% # Type of FU issued
system.switch_cpus_1.iq.FU_type_0::SimdFloatCmp            0      0.00%     82.55% # Type of FU issued
system.switch_cpus_1.iq.FU_type_0::SimdFloatCvt           25      0.00%     82.55% # Type of FU issued
system.switch_cpus_1.iq.FU_type_0::SimdFloatDiv            1      0.00%     82.55% # Type of FU issued
system.switch_cpus_1.iq.FU_type_0::SimdFloatMisc            0      0.00%     82.55% # Type of FU issued
system.switch_cpus_1.iq.FU_type_0::SimdFloatMult            1      0.00%     82.55% # Type of FU issued
system.switch_cpus_1.iq.FU_type_0::SimdFloatMultAcc            0      0.00%     82.55% # Type of FU issued
system.switch_cpus_1.iq.FU_type_0::SimdFloatSqrt            0      0.00%     82.55% # Type of FU issued
system.switch_cpus_1.iq.FU_type_0::SimdReduceAdd            0      0.00%     82.55% # Type of FU issued
system.switch_cpus_1.iq.FU_type_0::SimdReduceAlu            0      0.00%     82.55% # Type of FU issued
system.switch_cpus_1.iq.FU_type_0::SimdReduceCmp            0      0.00%     82.55% # Type of FU issued
system.switch_cpus_1.iq.FU_type_0::SimdFloatReduceAdd            0      0.00%     82.55% # Type of FU issued
system.switch_cpus_1.iq.FU_type_0::SimdFloatReduceCmp            0      0.00%     82.55% # Type of FU issued
system.switch_cpus_1.iq.FU_type_0::SimdAes            0      0.00%     82.55% # Type of FU issued
system.switch_cpus_1.iq.FU_type_0::SimdAesMix            0      0.00%     82.55% # Type of FU issued
system.switch_cpus_1.iq.FU_type_0::SimdSha1Hash            0      0.00%     82.55% # Type of FU issued
system.switch_cpus_1.iq.FU_type_0::SimdSha1Hash2            0      0.00%     82.55% # Type of FU issued
system.switch_cpus_1.iq.FU_type_0::SimdSha256Hash            0      0.00%     82.55% # Type of FU issued
system.switch_cpus_1.iq.FU_type_0::SimdSha256Hash2            0      0.00%     82.55% # Type of FU issued
system.switch_cpus_1.iq.FU_type_0::SimdShaSigma2            0      0.00%     82.55% # Type of FU issued
system.switch_cpus_1.iq.FU_type_0::SimdShaSigma3            0      0.00%     82.55% # Type of FU issued
system.switch_cpus_1.iq.FU_type_0::SimdPredAlu            0      0.00%     82.55% # Type of FU issued
system.switch_cpus_1.iq.FU_type_0::MemRead    371136184     12.89%     95.44% # Type of FU issued
system.switch_cpus_1.iq.FU_type_0::MemWrite    131479889      4.56%    100.00% # Type of FU issued
system.switch_cpus_1.iq.FU_type_0::FloatMemRead         1046      0.00%    100.00% # Type of FU issued
system.switch_cpus_1.iq.FU_type_0::FloatMemWrite          545      0.00%    100.00% # Type of FU issued
system.switch_cpus_1.iq.FU_type_0::IprAccess            0      0.00%    100.00% # Type of FU issued
system.switch_cpus_1.iq.FU_type_0::InstPrefetch            0      0.00%    100.00% # Type of FU issued
system.switch_cpus_1.iq.FU_type_0::total   2880249793                       # Type of FU issued
system.switch_cpus_1.iq.fp_alu_accesses          8573                       # Number of floating point alu accesses
system.switch_cpus_1.iq.fp_inst_queue_reads        17702                       # Number of floating instruction queue reads
system.switch_cpus_1.iq.fp_inst_queue_wakeup_accesses         8317                       # Number of floating instruction queue wakeup accesses
system.switch_cpus_1.iq.fp_inst_queue_writes        14335                       # Number of floating instruction queue writes
system.switch_cpus_1.iq.fu_busy_cnt                 0                       # FU busy when requested
system.switch_cpus_1.iq.fu_busy_rate                0                       # FU busy rate (busy events/executed inst)
system.switch_cpus_1.iq.fu_full::No_OpClass            0                       # attempts to use FU when none available
system.switch_cpus_1.iq.fu_full::IntAlu             0                       # attempts to use FU when none available
system.switch_cpus_1.iq.fu_full::IntMult            0                       # attempts to use FU when none available
system.switch_cpus_1.iq.fu_full::IntDiv             0                       # attempts to use FU when none available
system.switch_cpus_1.iq.fu_full::FloatAdd            0                       # attempts to use FU when none available
system.switch_cpus_1.iq.fu_full::FloatCmp            0                       # attempts to use FU when none available
system.switch_cpus_1.iq.fu_full::FloatCvt            0                       # attempts to use FU when none available
system.switch_cpus_1.iq.fu_full::FloatMult            0                       # attempts to use FU when none available
system.switch_cpus_1.iq.fu_full::FloatMultAcc            0                       # attempts to use FU when none available
system.switch_cpus_1.iq.fu_full::FloatDiv            0                       # attempts to use FU when none available
system.switch_cpus_1.iq.fu_full::FloatMisc            0                       # attempts to use FU when none available
system.switch_cpus_1.iq.fu_full::FloatSqrt            0                       # attempts to use FU when none available
system.switch_cpus_1.iq.fu_full::SimdAdd            0                       # attempts to use FU when none available
system.switch_cpus_1.iq.fu_full::SimdAddAcc            0                       # attempts to use FU when none available
system.switch_cpus_1.iq.fu_full::SimdAlu            0                       # attempts to use FU when none available
system.switch_cpus_1.iq.fu_full::SimdCmp            0                       # attempts to use FU when none available
system.switch_cpus_1.iq.fu_full::SimdCvt            0                       # attempts to use FU when none available
system.switch_cpus_1.iq.fu_full::SimdMisc            0                       # attempts to use FU when none available
system.switch_cpus_1.iq.fu_full::SimdMult            0                       # attempts to use FU when none available
system.switch_cpus_1.iq.fu_full::SimdMultAcc            0                       # attempts to use FU when none available
system.switch_cpus_1.iq.fu_full::SimdShift            0                       # attempts to use FU when none available
system.switch_cpus_1.iq.fu_full::SimdShiftAcc            0                       # attempts to use FU when none available
system.switch_cpus_1.iq.fu_full::SimdDiv            0                       # attempts to use FU when none available
system.switch_cpus_1.iq.fu_full::SimdSqrt            0                       # attempts to use FU when none available
system.switch_cpus_1.iq.fu_full::SimdFloatAdd            0                       # attempts to use FU when none available
system.switch_cpus_1.iq.fu_full::SimdFloatAlu            0                       # attempts to use FU when none available
system.switch_cpus_1.iq.fu_full::SimdFloatCmp            0                       # attempts to use FU when none available
system.switch_cpus_1.iq.fu_full::SimdFloatCvt            0                       # attempts to use FU when none available
system.switch_cpus_1.iq.fu_full::SimdFloatDiv            0                       # attempts to use FU when none available
system.switch_cpus_1.iq.fu_full::SimdFloatMisc            0                       # attempts to use FU when none available
system.switch_cpus_1.iq.fu_full::SimdFloatMult            0                       # attempts to use FU when none available
system.switch_cpus_1.iq.fu_full::SimdFloatMultAcc            0                       # attempts to use FU when none available
system.switch_cpus_1.iq.fu_full::SimdFloatSqrt            0                       # attempts to use FU when none available
system.switch_cpus_1.iq.fu_full::SimdReduceAdd            0                       # attempts to use FU when none available
system.switch_cpus_1.iq.fu_full::SimdReduceAlu            0                       # attempts to use FU when none available
system.switch_cpus_1.iq.fu_full::SimdReduceCmp            0                       # attempts to use FU when none available
system.switch_cpus_1.iq.fu_full::SimdFloatReduceAdd            0                       # attempts to use FU when none available
system.switch_cpus_1.iq.fu_full::SimdFloatReduceCmp            0                       # attempts to use FU when none available
system.switch_cpus_1.iq.fu_full::SimdAes            0                       # attempts to use FU when none available
system.switch_cpus_1.iq.fu_full::SimdAesMix            0                       # attempts to use FU when none available
system.switch_cpus_1.iq.fu_full::SimdSha1Hash            0                       # attempts to use FU when none available
system.switch_cpus_1.iq.fu_full::SimdSha1Hash2            0                       # attempts to use FU when none available
system.switch_cpus_1.iq.fu_full::SimdSha256Hash            0                       # attempts to use FU when none available
system.switch_cpus_1.iq.fu_full::SimdSha256Hash2            0                       # attempts to use FU when none available
system.switch_cpus_1.iq.fu_full::SimdShaSigma2            0                       # attempts to use FU when none available
system.switch_cpus_1.iq.fu_full::SimdShaSigma3            0                       # attempts to use FU when none available
system.switch_cpus_1.iq.fu_full::SimdPredAlu            0                       # attempts to use FU when none available
system.switch_cpus_1.iq.fu_full::MemRead            0                       # attempts to use FU when none available
system.switch_cpus_1.iq.fu_full::MemWrite            0                       # attempts to use FU when none available
system.switch_cpus_1.iq.fu_full::FloatMemRead            0                       # attempts to use FU when none available
system.switch_cpus_1.iq.fu_full::FloatMemWrite            0                       # attempts to use FU when none available
system.switch_cpus_1.iq.fu_full::IprAccess            0                       # attempts to use FU when none available
system.switch_cpus_1.iq.fu_full::InstPrefetch            0                       # attempts to use FU when none available
system.switch_cpus_1.iq.int_alu_accesses   2847619916                       # Number of integer alu accesses
system.switch_cpus_1.iq.int_inst_queue_reads   7616304502                       # Number of integer instruction queue reads
system.switch_cpus_1.iq.int_inst_queue_wakeup_accesses   2773200237                       # Number of integer instruction queue wakeup accesses
system.switch_cpus_1.iq.int_inst_queue_writes   6187668029                       # Number of integer instruction queue writes
system.switch_cpus_1.iq.iqInstsAdded       4039938876                       # Number of instructions added to the IQ (excludes non-spec)
system.switch_cpus_1.iq.iqInstsIssued      2880249793                       # Number of instructions issued
system.switch_cpus_1.iq.iqNonSpecInstsAdded          195                       # Number of non-speculative instructions added to the IQ
system.switch_cpus_1.iq.iqSquashedInstsExamined   2147639992                       # Number of squashed instructions iterated over during squash; mainly for profiling
system.switch_cpus_1.iq.iqSquashedInstsIssued    377198130                       # Number of squashed instructions issued
system.switch_cpus_1.iq.iqSquashedNonSpecRemoved          147                       # Number of squashed non-spec instructions that were removed
system.switch_cpus_1.iq.iqSquashedOperandsExamined   3416734829                       # Number of squashed operands that are examined and possibly removed from graph
system.switch_cpus_1.iq.issued_per_cycle::samples   1478624488                       # Number of insts issued each cycle
system.switch_cpus_1.iq.issued_per_cycle::mean     1.947925                       # Number of insts issued each cycle
system.switch_cpus_1.iq.issued_per_cycle::stdev     1.895224                       # Number of insts issued each cycle
system.switch_cpus_1.iq.issued_per_cycle::underflows            0      0.00%      0.00% # Number of insts issued each cycle
system.switch_cpus_1.iq.issued_per_cycle::0    666483245     45.07%     45.07% # Number of insts issued each cycle
system.switch_cpus_1.iq.issued_per_cycle::1     65421608      4.42%     49.50% # Number of insts issued each cycle
system.switch_cpus_1.iq.issued_per_cycle::2     56479458      3.82%     53.32% # Number of insts issued each cycle
system.switch_cpus_1.iq.issued_per_cycle::3     59091439      4.00%     57.32% # Number of insts issued each cycle
system.switch_cpus_1.iq.issued_per_cycle::4    631148738     42.68%    100.00% # Number of insts issued each cycle
system.switch_cpus_1.iq.issued_per_cycle::overflows            0      0.00%    100.00% # Number of insts issued each cycle
system.switch_cpus_1.iq.issued_per_cycle::min_value            0                       # Number of insts issued each cycle
system.switch_cpus_1.iq.issued_per_cycle::max_value            4                       # Number of insts issued each cycle
system.switch_cpus_1.iq.issued_per_cycle::total   1478624488                       # Number of insts issued each cycle
system.switch_cpus_1.iq.rate                 1.937184                       # Inst issue rate
system.switch_cpus_1.iq.vec_alu_accesses            0                       # Number of vector alu accesses
system.switch_cpus_1.iq.vec_inst_queue_reads            0                       # Number of vector instruction queue reads
system.switch_cpus_1.iq.vec_inst_queue_wakeup_accesses            0                       # Number of vector instruction queue wakeup accesses
system.switch_cpus_1.iq.vec_inst_queue_writes            0                       # Number of vector instruction queue writes
system.switch_cpus_1.itb.rdAccesses                 0                       # TLB accesses on read requests
system.switch_cpus_1.itb.rdMisses                   0                       # TLB misses on read requests
system.switch_cpus_1.itb.wrAccesses         327645046                       # TLB accesses on write requests
system.switch_cpus_1.itb.wrMisses                  78                       # TLB misses on write requests
system.switch_cpus_1.memDep0.conflictingLoads     14028778                       # Number of conflicting loads.
system.switch_cpus_1.memDep0.conflictingStores     11427426                       # Number of conflicting stores.
system.switch_cpus_1.memDep0.insertedLoads    503512617                       # Number of loads inserted to the mem dependence unit.
system.switch_cpus_1.memDep0.insertedStores    207396012                       # Number of stores inserted to the mem dependence unit.
system.switch_cpus_1.misc_regfile_reads    1224398244                       # number of misc regfile reads
system.switch_cpus_1.misc_regfile_writes           72                       # number of misc regfile writes
system.switch_cpus_1.numCycles             1486822949                       # number of cpu cycles simulated
system.switch_cpus_1.numWorkItemsCompleted            0                       # number of work items this cpu completed
system.switch_cpus_1.numWorkItemsStarted            0                       # number of work items this cpu started
system.switch_cpus_1.rename.BlockCycles     281717153                       # Number of cycles rename is blocking
system.switch_cpus_1.rename.CommittedMaps   2277656992                       # Number of HB maps that are committed
system.switch_cpus_1.rename.IQFullEvents    116346319                       # Number of times rename has blocked due to IQ full
system.switch_cpus_1.rename.IdleCycles      397369715                       # Number of cycles rename is idle
system.switch_cpus_1.rename.LQFullEvents       150660                       # Number of times rename has blocked due to LQ full
system.switch_cpus_1.rename.ROBFullEvents      1099597                       # Number of times rename has blocked due to ROB full
system.switch_cpus_1.rename.RenameLookups  10669704321                       # Number of register rename lookups that rename has made
system.switch_cpus_1.rename.RenamedInsts   4649499135                       # Number of instructions processed by rename
system.switch_cpus_1.rename.RenamedOperands   5427868100                       # Number of destination operands rename has renamed
system.switch_cpus_1.rename.RunCycles       586274182                       # Number of cycles rename is running
system.switch_cpus_1.rename.SQFullEvents       156366                       # Number of times rename has blocked due to SQ full
system.switch_cpus_1.rename.SquashCycles     73534192                       # Number of cycles rename is squashing
system.switch_cpus_1.rename.UnblockCycles    139728459                       # Number of cycles rename is unblocking
system.switch_cpus_1.rename.UndoneMaps     3150211057                       # Number of HB maps that are undone due to squashing
system.switch_cpus_1.rename.fp_rename_lookups        15235                       # Number of floating rename lookups
system.switch_cpus_1.rename.int_rename_lookups   6009075498                       # Number of integer rename lookups
system.switch_cpus_1.rename.serializeStallCycles          781                       # count of cycles rename stalled for serializing inst
system.switch_cpus_1.rename.serializingInsts           48                       # count of serializing insts renamed
system.switch_cpus_1.rename.skidInsts       526464045                       # count of insts added to the skid buffer
system.switch_cpus_1.rename.tempSerializingInsts           46                       # count of temporary serializing insts renamed
system.switch_cpus_1.rob.rob_reads         5094303811                       # The number of ROB reads
system.switch_cpus_1.rob.rob_writes        8414941198                       # The number of ROB writes
system.switch_cpus_1.timesIdled               1134625                       # Number of times that the entire CPU went into an idle state and unscheduled itself
system.tol2bus.snoop_filter.hit_multi_requests            4                       # Number of requests hitting in the snoop filter with multiple (>1) holders of the requested data.
system.tol2bus.snoop_filter.hit_multi_snoops            0                       # Number of snoops hitting in the snoop filter with multiple (>1) holders of the requested data.
system.tol2bus.snoop_filter.hit_single_requests      6963403                       # Number of requests hitting in the snoop filter with a single holder of the requested data.
system.tol2bus.snoop_filter.hit_single_snoops          606                       # Number of snoops hitting in the snoop filter with a single holder of the requested data.
system.tol2bus.snoop_filter.tot_requests     13926807                       # Total number of requests made to the snoop filter.
system.tol2bus.snoop_filter.tot_snoops            606                       # Total number of snoops made to the snoop filter.
system.membus.trans_dist::ReadResp             341439                       # Transaction distribution
system.membus.trans_dist::WritebackDirty       272062                       # Transaction distribution
system.membus.trans_dist::CleanEvict            86858                       # Transaction distribution
system.membus.trans_dist::ReadExReq             17480                       # Transaction distribution
system.membus.trans_dist::ReadExResp            17480                       # Transaction distribution
system.membus.trans_dist::ReadSharedReq        341439                       # Transaction distribution
system.membus.pkt_count_system.l2.mem_side::system.mem_ctrls.port      1076758                       # Packet count per connected master and slave (bytes)
system.membus.pkt_count_system.l2.mem_side::total      1076758                       # Packet count per connected master and slave (bytes)
system.membus.pkt_count::total                1076758                       # Packet count per connected master and slave (bytes)
system.membus.pkt_size_system.l2.mem_side::system.mem_ctrls.port     40382784                       # Cumulative packet size per connected master and slave (bytes)
system.membus.pkt_size_system.l2.mem_side::total     40382784                       # Cumulative packet size per connected master and slave (bytes)
system.membus.pkt_size::total                40382784                       # Cumulative packet size per connected master and slave (bytes)
system.membus.snoops                                0                       # Total snoops (count)
system.membus.snoopTraffic                          0                       # Total snoop traffic (bytes)
system.membus.snoop_fanout::samples            358919                       # Request fanout histogram
system.membus.snoop_fanout::mean                    0                       # Request fanout histogram
system.membus.snoop_fanout::stdev                   0                       # Request fanout histogram
system.membus.snoop_fanout::underflows              0      0.00%      0.00% # Request fanout histogram
system.membus.snoop_fanout::0                  358919    100.00%    100.00% # Request fanout histogram
system.membus.snoop_fanout::1                       0      0.00%    100.00% # Request fanout histogram
system.membus.snoop_fanout::overflows               0      0.00%    100.00% # Request fanout histogram
[...]
system.cpu.dcache.demand_miss_latency::.switch_cpus_1.data  89583427997                       # number of demand (read+write) miss cycles
system.cpu.dcache.demand_miss_latency::total  92796011497                       # number of demand (read+write) miss cycles
system.cpu.dcache.overall_miss_latency::.switch_cpus.data   3212583500                       # number of overall miss cycles
system.cpu.dcache.overall_miss_latency::.switch_cpus_1.data  89583427997                       # number of overall miss cycles
system.cpu.dcache.overall_miss_latency::total  92796011497                       # number of overall miss cycles
system.cpu.dcache.demand_accesses::.cpu.data    383069519                       # number of demand (read+write) accesses
system.cpu.dcache.demand_accesses::.switch_cpus.data     16518886                       # number of demand (read+write) accesses
system.cpu.dcache.demand_accesses::.switch_cpus_1.data    420697925                       # number of demand (read+write) accesses
system.cpu.dcache.demand_accesses::total    820286330                       # number of demand (read+write) accesses
system.cpu.dcache.overall_accesses::.cpu.data    383069519                       # number of overall (read+write) accesses
system.cpu.dcache.overall_accesses::.switch_cpus.data     16518886                       # number of overall (read+write) accesses
system.cpu.dcache.overall_accesses::.switch_cpus_1.data    420697925                       # number of overall (read+write) accesses
system.cpu.dcache.overall_accesses::total    820286330                       # number of overall (read+write) accesses
system.cpu.dcache.demand_miss_rate::.cpu.data     0.028340                       # miss rate for demand accesses
system.cpu.dcache.demand_miss_rate::.switch_cpus.data     0.008754                       # miss rate for demand accesses
system.cpu.dcache.demand_miss_rate::.switch_cpus_1.data     0.010454                       # miss rate for demand accesses
system.cpu.dcache.demand_miss_rate::total     0.018772                       # miss rate for demand accesses
system.cpu.dcache.overall_miss_rate::.cpu.data     0.028340                       # miss rate for overall accesses
system.cpu.dcache.overall_miss_rate::.switch_cpus.data     0.008754                       # miss rate for overall accesses
system.cpu.dcache.overall_miss_rate::.switch_cpus_1.data     0.010454                       # miss rate for overall accesses
system.cpu.dcache.overall_miss_rate::total     0.018772                       # miss rate for overall accesses
system.cpu.dcache.demand_avg_miss_latency::.switch_cpus.data 22216.883009                       # average overall miss latency
system.cpu.dcache.demand_avg_miss_latency::.switch_cpus_1.data 20369.633535                       # average overall miss latency
system.cpu.dcache.demand_avg_miss_latency::total  6026.275006                       # average overall miss latency
system.cpu.dcache.overall_avg_miss_latency::.switch_cpus.data 22216.883009                       # average overall miss latency
system.cpu.dcache.overall_avg_miss_latency::.switch_cpus_1.data 20369.633535                       # average overall miss latency
system.cpu.dcache.overall_avg_miss_latency::total  6026.275006                       # average overall miss latency
system.cpu.dcache.blocked_cycles::no_mshrs        15341                       # number of cycles access was blocked
system.cpu.dcache.blocked_cycles::no_targets         1261                       # number of cycles access was blocked
system.cpu.dcache.blocked::no_mshrs              1349                       # number of cycles access was blocked
system.cpu.dcache.blocked::no_targets               5                       # number of cycles access was blocked
system.cpu.dcache.avg_blocked_cycles::no_mshrs    11.372128                       # average number of cycles each access was blocked
system.cpu.dcache.avg_blocked_cycles::no_targets   252.200000                       # average number of cycles each access was blocked
system.cpu.dcache.writebacks::.writebacks     12430731                       # number of writebacks
system.cpu.dcache.writebacks::total          12430731                       # number of writebacks
system.cpu.dcache.demand_mshr_hits::.switch_cpus_1.data      1188523                       # number of demand (read+write) MSHR hits
system.cpu.dcache.demand_mshr_hits::total      1188523                       # number of demand (read+write) MSHR hits
system.cpu.dcache.overall_mshr_hits::.switch_cpus_1.data      1188523                       # number of overall MSHR hits
system.cpu.dcache.overall_mshr_hits::total      1188523                       # number of overall MSHR hits
system.cpu.dcache.demand_mshr_misses::.switch_cpus.data       144601                       # number of demand (read+write) MSHR misses
system.cpu.dcache.demand_mshr_misses::.switch_cpus_1.data      3209368                       # number of demand (read+write) MSHR misses
system.cpu.dcache.demand_mshr_misses::total      3353969                       # number of demand (read+write) MSHR misses
system.cpu.dcache.overall_mshr_misses::.switch_cpus.data       144601                       # number of overall MSHR misses
system.cpu.dcache.overall_mshr_misses::.switch_cpus_1.data      3209368                       # number of overall MSHR misses
system.cpu.dcache.overall_mshr_misses::total      3353969                       # number of overall MSHR misses
system.cpu.dcache.demand_mshr_miss_latency::.switch_cpus.data   3067982500                       # number of demand (read+write) MSHR miss cycles
system.cpu.dcache.demand_mshr_miss_latency::.switch_cpus_1.data  67563757997                       # number of demand (read+write) MSHR miss cycles
system.cpu.dcache.demand_mshr_miss_latency::total  70631740497                       # number of demand (read+write) MSHR miss cycles
system.cpu.dcache.overall_mshr_miss_latency::.switch_cpus.data   3067982500                       # number of overall MSHR miss cycles
system.cpu.dcache.overall_mshr_miss_latency::.switch_cpus_1.data  67563757997                       # number of overall MSHR miss cycles
system.cpu.dcache.overall_mshr_miss_latency::total  70631740497                       # number of overall MSHR miss cycles
system.cpu.dcache.demand_mshr_miss_rate::.switch_cpus.data     0.008754                       # mshr miss rate for demand accesses
system.cpu.dcache.demand_mshr_miss_rate::.switch_cpus_1.data     0.007629                       # mshr miss rate for demand accesses
system.cpu.dcache.demand_mshr_miss_rate::total     0.004089                       # mshr miss rate for demand accesses
system.cpu.dcache.overall_mshr_miss_rate::.switch_cpus.data     0.008754                       # mshr miss rate for overall accesses
system.cpu.dcache.overall_mshr_miss_rate::.switch_cpus_1.data     0.007629                       # mshr miss rate for overall accesses
system.cpu.dcache.overall_mshr_miss_rate::total     0.004089                       # mshr miss rate for overall accesses
system.cpu.dcache.demand_avg_mshr_miss_latency::.switch_cpus.data 21216.883009                       # average overall mshr miss latency
system.cpu.dcache.demand_avg_mshr_miss_latency::.switch_cpus_1.data 21052.044514                       # average overall mshr miss latency
system.cpu.dcache.demand_avg_mshr_miss_latency::total 21059.151261                       # average overall mshr miss latency
system.cpu.dcache.overall_avg_mshr_miss_latency::.switch_cpus.data 21216.883009                       # average overall mshr miss latency
system.cpu.dcache.overall_avg_mshr_miss_latency::.switch_cpus_1.data 21052.044514                       # average overall mshr miss latency
system.cpu.dcache.overall_avg_mshr_miss_latency::total 21059.151261                       # average overall mshr miss latency
system.cpu.dcache.replacements               14209534                       # number of replacements
system.cpu.dcache.ReadReq_hits::.cpu.data    225676570                       # number of ReadReq hits
system.cpu.dcache.ReadReq_hits::.switch_cpus.data     11921430                       # number of ReadReq hits
system.cpu.dcache.ReadReq_hits::.switch_cpus_1.data    321038005                       # number of ReadReq hits
system.cpu.dcache.ReadReq_hits::total       558636005                       # number of ReadReq hits
system.cpu.dcache.ReadReq_misses::.cpu.data      1624328                       # number of ReadReq misses
system.cpu.dcache.ReadReq_misses::.switch_cpus.data        91415                       # number of ReadReq misses
system.cpu.dcache.ReadReq_misses::.switch_cpus_1.data      3321770                       # number of ReadReq misses
system.cpu.dcache.ReadReq_misses::total       5037513                       # number of ReadReq misses
system.cpu.dcache.ReadReq_miss_latency::.switch_cpus.data   2452848000                       # number of ReadReq miss cycles
system.cpu.dcache.ReadReq_miss_latency::.switch_cpus_1.data  74283643000                       # number of ReadReq miss cycles
system.cpu.dcache.ReadReq_miss_latency::total  76736491000                       # number of ReadReq miss cycles
system.cpu.dcache.ReadReq_accesses::.cpu.data    227300898                       # number of ReadReq accesses(hits+misses)
system.cpu.dcache.ReadReq_accesses::.switch_cpus.data     12012845                       # number of ReadReq accesses(hits+misses)
system.cpu.dcache.ReadReq_accesses::.switch_cpus_1.data    324359775                       # number of ReadReq accesses(hits+misses)
system.cpu.dcache.ReadReq_accesses::total    563673518                       # number of ReadReq accesses(hits+misses)
system.cpu.dcache.ReadReq_miss_rate::.cpu.data     0.007146                       # miss rate for ReadReq accesses
system.cpu.dcache.ReadReq_miss_rate::.switch_cpus.data     0.007610                       # miss rate for ReadReq accesses
system.cpu.dcache.ReadReq_miss_rate::.switch_cpus_1.data     0.010241                       # miss rate for ReadReq accesses
system.cpu.dcache.ReadReq_miss_rate::total     0.008937                       # miss rate for ReadReq accesses
system.cpu.dcache.ReadReq_avg_miss_latency::.switch_cpus.data 26832.007876                       # average ReadReq miss latency
system.cpu.dcache.ReadReq_avg_miss_latency::.switch_cpus_1.data 22362.668999                       # average ReadReq miss latency
system.cpu.dcache.ReadReq_avg_miss_latency::total 15233.011012                       # average ReadReq miss latency
system.cpu.dcache.ReadReq_mshr_hits::.switch_cpus_1.data      1176547                       # number of ReadReq MSHR hits
system.cpu.dcache.ReadReq_mshr_hits::total      1176547                       # number of ReadReq MSHR hits
system.cpu.dcache.ReadReq_mshr_misses::.switch_cpus.data        91415                       # number of ReadReq MSHR misses
system.cpu.dcache.ReadReq_mshr_misses::.switch_cpus_1.data      2145223                       # number of ReadReq MSHR misses
system.cpu.dcache.ReadReq_mshr_misses::total      2236638                       # number of ReadReq MSHR misses
system.cpu.dcache.ReadReq_mshr_miss_latency::.switch_cpus.data   2361433000                       # number of ReadReq MSHR miss cycles
system.cpu.dcache.ReadReq_mshr_miss_latency::.switch_cpus_1.data  53428497000                       # number of ReadReq MSHR miss cycles
system.cpu.dcache.ReadReq_mshr_miss_latency::total  55789930000                       # number of ReadReq MSHR miss cycles
system.cpu.dcache.ReadReq_mshr_miss_rate::.switch_cpus.data     0.007610                       # mshr miss rate for ReadReq accesses
system.cpu.dcache.ReadReq_mshr_miss_rate::.switch_cpus_1.data     0.006614                       # mshr miss rate for ReadReq accesses
system.cpu.dcache.ReadReq_mshr_miss_rate::total     0.003968                       # mshr miss rate for ReadReq accesses
system.cpu.dcache.ReadReq_avg_mshr_miss_latency::.switch_cpus.data 25832.007876                       # average ReadReq mshr miss latency
system.cpu.dcache.ReadReq_avg_mshr_miss_latency::.switch_cpus_1.data 24905.800935                       # average ReadReq mshr miss latency
system.cpu.dcache.ReadReq_avg_mshr_miss_latency::total 24943.656506                       # average ReadReq mshr miss latency
system.cpu.dcache.WriteReq_hits::.cpu.data    146536872                       # number of WriteReq hits
system.cpu.dcache.WriteReq_hits::.switch_cpus.data      4452855                       # number of WriteReq hits
system.cpu.dcache.WriteReq_hits::.switch_cpus_1.data     95262029                       # number of WriteReq hits
system.cpu.dcache.WriteReq_hits::total      246251756                       # number of WriteReq hits
system.cpu.dcache.WriteReq_misses::.cpu.data      9231749                       # number of WriteReq misses
system.cpu.dcache.WriteReq_misses::.switch_cpus.data        53186                       # number of WriteReq misses
system.cpu.dcache.WriteReq_misses::.switch_cpus_1.data      1076121                       # number of WriteReq misses
system.cpu.dcache.WriteReq_misses::total     10361056                       # number of WriteReq misses
system.cpu.dcache.WriteReq_miss_latency::.switch_cpus.data    759735500                       # number of WriteReq miss cycles
system.cpu.dcache.WriteReq_miss_latency::.switch_cpus_1.data  15299784997                       # number of WriteReq miss cycles
system.cpu.dcache.WriteReq_miss_latency::total  16059520497                       # number of WriteReq miss cycles
system.cpu.dcache.WriteReq_accesses::.cpu.data    155768621                       # number of WriteReq accesses(hits+misses)
system.cpu.dcache.WriteReq_accesses::.switch_cpus.data      4506041                       # number of WriteReq accesses(hits+misses)
system.cpu.dcache.WriteReq_accesses::.switch_cpus_1.data     96338150                       # number of WriteReq accesses(hits+misses)
system.cpu.dcache.WriteReq_accesses::total    256612812                       # number of WriteReq accesses(hits+misses)
system.cpu.dcache.WriteReq_miss_rate::.cpu.data     0.059266                       # miss rate for WriteReq accesses
system.cpu.dcache.WriteReq_miss_rate::.switch_cpus.data     0.011803                       # miss rate for WriteReq accesses
system.cpu.dcache.WriteReq_miss_rate::.switch_cpus_1.data     0.011170                       # miss rate for WriteReq accesses
system.cpu.dcache.WriteReq_miss_rate::total     0.040376                       # miss rate for WriteReq accesses
system.cpu.dcache.WriteReq_avg_miss_latency::.switch_cpus.data 14284.501561                       # average WriteReq miss latency
system.cpu.dcache.WriteReq_avg_miss_latency::.switch_cpus_1.data 14217.532226                       # average WriteReq miss latency
system.cpu.dcache.WriteReq_avg_miss_latency::total  1549.988775                       # average WriteReq miss latency
system.cpu.dcache.WriteReq_mshr_hits::.switch_cpus_1.data        11976                       # number of WriteReq MSHR hits
system.cpu.dcache.WriteReq_mshr_hits::total        11976                       # number of WriteReq MSHR hits
system.cpu.dcache.WriteReq_mshr_misses::.switch_cpus.data        53186                       # number of WriteReq MSHR misses
system.cpu.dcache.WriteReq_mshr_misses::.switch_cpus_1.data      1064145                       # number of WriteReq MSHR misses
system.cpu.dcache.WriteReq_mshr_misses::total      1117331                       # number of WriteReq MSHR misses
system.cpu.dcache.WriteReq_mshr_miss_latency::.switch_cpus.data    706549500                       # number of WriteReq MSHR miss cycles
system.cpu.dcache.WriteReq_mshr_miss_latency::.switch_cpus_1.data  14135260997                       # number of WriteReq MSHR miss cycles
system.cpu.dcache.WriteReq_mshr_miss_latency::total  14841810497                       # number of WriteReq MSHR miss cycles
system.cpu.dcache.WriteReq_mshr_miss_rate::.switch_cpus.data     0.011803                       # mshr miss rate for WriteReq accesses
system.cpu.dcache.WriteReq_mshr_miss_rate::.switch_cpus_1.data     0.011046                       # mshr miss rate for WriteReq accesses
system.cpu.dcache.WriteReq_mshr_miss_rate::total     0.004354                       # mshr miss rate for WriteReq accesses
system.cpu.dcache.WriteReq_avg_mshr_miss_latency::.switch_cpus.data 13284.501561                       # average WriteReq mshr miss latency
system.cpu.dcache.WriteReq_avg_mshr_miss_latency::.switch_cpus_1.data 13283.209522                       # average WriteReq mshr miss latency
system.cpu.dcache.WriteReq_avg_mshr_miss_latency::total 13283.271024                       # average WriteReq mshr miss latency
system.cpu.dcache.power_state.pwrStateResidencyTicks::UNDEFINED 1955436526000                       # Cumulative time (in ticks) in various power states
system.cpu.dcache.tags.tagsinuse           511.996698                       # Cycle average of tags in use
system.cpu.dcache.tags.total_refs           819097807                       # Total number of references to valid blocks.
system.cpu.dcache.tags.sampled_refs          14210046                       # Sample count of references to valid blocks.
system.cpu.dcache.tags.avg_refs             57.642164                       # Average number of references to valid blocks.
system.cpu.dcache.tags.warmup_cycle              1500                       # Cycle when the warmup percentage was hit.
system.cpu.dcache.tags.occ_blocks::.cpu.data   294.754529                       # Average occupied blocks per requestor
system.cpu.dcache.tags.occ_blocks::.switch_cpus.data    22.754378                       # Average occupied blocks per requestor
system.cpu.dcache.tags.occ_blocks::.switch_cpus_1.data   194.487791                       # Average occupied blocks per requestor
system.cpu.dcache.tags.occ_percent::.cpu.data     0.575692                       # Average percentage of cache occupancy
system.cpu.dcache.tags.occ_percent::.switch_cpus.data     0.044442                       # Average percentage of cache occupancy
system.cpu.dcache.tags.occ_percent::.switch_cpus_1.data     0.379859                       # Average percentage of cache occupancy
system.cpu.dcache.tags.occ_percent::total     0.999994                       # Average percentage of cache occupancy
system.cpu.dcache.tags.occ_task_id_blocks::1024          512                       # Occupied blocks per task id
system.cpu.dcache.tags.age_task_id_blocks_1024::0           28                       # Occupied blocks per task id
system.cpu.dcache.tags.age_task_id_blocks_1024::1           84                       # Occupied blocks per task id
system.cpu.dcache.tags.age_task_id_blocks_1024::2          263                       # Occupied blocks per task id
system.cpu.dcache.tags.age_task_id_blocks_1024::3          137                       # Occupied blocks per task id
system.cpu.dcache.tags.occ_task_id_percent::1024            1                       # Percentage of cache occupancy per task id
system.cpu.dcache.tags.tag_accesses        1654782706                       # Number of tag accesses
system.cpu.dcache.tags.data_accesses       1654782706                       # Number of data accesses
system.cpu.dcache.tags.power_state.pwrStateResidencyTicks::UNDEFINED 1955436526000                       # Cumulative time (in ticks) in various power states
system.cpu.power_state.numTransitions               2                       # Number of power state transitions
system.cpu.power_state.pwrStateResidencyTicks::ON 1123541832500                       # Cumulative time (in ticks) in various power states
system.cpu.power_state.pwrStateResidencyTicks::OFF 831894693500                       # Cumulative time (in ticks) in various power states

---------- End Simulation Statistics   ----------
