
---------- Begin Simulation Statistics ----------
final_tick                               209723285000                       # Number of ticks from beginning of simulation (restored from checkpoints and never reset)
host_inst_rate                                  42745                       # Simulator instruction rate (inst/s)
host_mem_usage                                 979208                       # Number of bytes of host memory used
host_op_rate                                    42870                       # Simulator op (including micro ops) rate (op/s)
host_seconds                                 23394.29                       # Real time elapsed on the host
host_tick_rate                                8964722                       # Simulator tick rate (ticks/s)
sim_freq                                 1000000000000                       # Frequency of simulated ticks
sim_insts                                  1000000000                       # Number of instructions simulated
sim_ops                                    1002907214                       # Number of ops (including micro ops) simulated
sim_seconds                                  0.209723                       # Number of seconds simulated
sim_ticks                                209723285000                       # Number of ticks simulated
system.cpu.branchPred.BTBCorrect                    0                       # Number of correct BTB predictions (this stat may not work properly.
system.cpu.branchPred.BTBHitPct             99.980669                       # BTB Hit Percentage
system.cpu.branchPred.BTBHits                32758894                       # Number of BTB hits
system.cpu.branchPred.BTBLookups             32765228                       # Number of BTB lookups
system.cpu.branchPred.RASInCorrect                  0                       # Number of incorrect RAS predictions.
system.cpu.branchPred.condIncorrect            297712                       # Number of conditional branches incorrect
system.cpu.branchPred.condPredicted          49394845                       # Number of conditional branches predicted
system.cpu.branchPred.indirectHits               2423                       # Number of indirect target hits.
system.cpu.branchPred.indirectLookups            3265                       # Number of indirect predictor lookups.
system.cpu.branchPred.indirectMisses              842                       # Number of indirect misses.
system.cpu.branchPred.lookups                50659383                       # Number of BP lookups
system.cpu.branchPred.loop_predictor.loopPredictorCorrect     41928793                       # Number of times the loop predictor is the provider and the prediction is correct
system.cpu.branchPred.loop_predictor.loopPredictorWrong      4858997                       # Number of times the loop predictor is the provider and the prediction is wrong
system.cpu.branchPred.statistical_corrector.scPredictorCorrect     16302027                       # Number of time the SC predictor is the provider and the prediction is correct
system.cpu.branchPred.statistical_corrector.scPredictorWrong     30485763                       # Number of time the SC predictor is the provider and the prediction is wrong
system.cpu.branchPred.tage.bimodalAltMatchProviderCorrect         1268                       # Number of times TAGE Alt Match is the bimodal and it is the provider and the prediction is correct
system.cpu.branchPred.tage.bimodalAltMatchProviderWrong          180                       # Number of times TAGE Alt Match is the bimodal and it is the provider and the prediction is wrong
system.cpu.branchPred.tage.tageAltMatchProvider::0      1710426                       # TAGE provider for alt match
system.cpu.branchPred.tage.tageAltMatchProvider::1            0                       # TAGE provider for alt match
system.cpu.branchPred.tage.tageAltMatchProvider::2        37513                       # TAGE provider for alt match
system.cpu.branchPred.tage.tageAltMatchProvider::3            0                       # TAGE provider for alt match
system.cpu.branchPred.tage.tageAltMatchProvider::4        16702                       # TAGE provider for alt match
system.cpu.branchPred.tage.tageAltMatchProvider::5            0                       # TAGE provider for alt match
system.cpu.branchPred.tage.tageAltMatchProvider::6        25297                       # TAGE provider for alt match
system.cpu.branchPred.tage.tageAltMatchProvider::7      4377170                       # TAGE provider for alt match
system.cpu.branchPred.tage.tageAltMatchProvider::8       477428                       # TAGE provider for alt match
system.cpu.branchPred.tage.tageAltMatchProvider::9       619974                       # TAGE provider for alt match
system.cpu.branchPred.tage.tageAltMatchProvider::10      5462056                       # TAGE provider for alt match
system.cpu.branchPred.tage.tageAltMatchProvider::11      1304559                       # TAGE provider for alt match
system.cpu.branchPred.tage.tageAltMatchProvider::12       898240                       # TAGE provider for alt match
system.cpu.branchPred.tage.tageAltMatchProvider::13      1101476                       # TAGE provider for alt match
system.cpu.branchPred.tage.tageAltMatchProvider::14      1744353                       # TAGE provider for alt match
system.cpu.branchPred.tage.tageAltMatchProvider::15      2305061                       # TAGE provider for alt match
system.cpu.branchPred.tage.tageAltMatchProvider::16      1411436                       # TAGE provider for alt match
system.cpu.branchPred.tage.tageAltMatchProvider::17      1131935                       # TAGE provider for alt match
system.cpu.branchPred.tage.tageAltMatchProvider::18      1119742                       # TAGE provider for alt match
system.cpu.branchPred.tage.tageAltMatchProvider::19       891249                       # TAGE provider for alt match
system.cpu.branchPred.tage.tageAltMatchProvider::20      1762199                       # TAGE provider for alt match
system.cpu.branchPred.tage.tageAltMatchProvider::21            0                       # TAGE provider for alt match
system.cpu.branchPred.tage.tageAltMatchProvider::22       830183                       # TAGE provider for alt match
system.cpu.branchPred.tage.tageAltMatchProvider::23            0                       # TAGE provider for alt match
system.cpu.branchPred.tage.tageAltMatchProvider::24      2033591                       # TAGE provider for alt match
system.cpu.branchPred.tage.tageAltMatchProvider::25            0                       # TAGE provider for alt match
system.cpu.branchPred.tage.tageAltMatchProvider::26       975900                       # TAGE provider for alt match
system.cpu.branchPred.tage.tageAltMatchProvider::27            0                       # TAGE provider for alt match
system.cpu.branchPred.tage.tageAltMatchProvider::28       323451                       # TAGE provider for alt match
system.cpu.branchPred.tage.tageAltMatchProvider::29            0                       # TAGE provider for alt match
system.cpu.branchPred.tage.tageAltMatchProvider::30            0                       # TAGE provider for alt match
system.cpu.branchPred.tage.tageAltMatchProviderCorrect        72870                       # Number of times TAGE Alt Match is the provider and the prediction is correct
system.cpu.branchPred.tage.tageAltMatchProviderWouldHaveHit        15783                       # Number of times TAGE Longest Match is the provider, the prediction is wrong and Alt Match prediction was correct
system.cpu.branchPred.tage.tageAltMatchProviderWrong        17165                       # Number of times TAGE Alt Match is the provider and the prediction is wrong
system.cpu.branchPred.tage.tageBimodalProviderCorrect      2630677                       # Number of times there are no hits on the TAGE tables and the bimodal prediction is correct
system.cpu.branchPred.tage.tageBimodalProviderWrong         1805                       # Number of times there are no hits on the TAGE tables and the bimodal prediction is wrong
system.cpu.branchPred.tage.tageLongestMatchProvider::0            0                       # TAGE provider for longest match
system.cpu.branchPred.tage.tageLongestMatchProvider::1            0                       # TAGE provider for longest match
system.cpu.branchPred.tage.tageLongestMatchProvider::2        63421                       # TAGE provider for longest match
system.cpu.branchPred.tage.tageLongestMatchProvider::3            0                       # TAGE provider for longest match
system.cpu.branchPred.tage.tageLongestMatchProvider::4         5395                       # TAGE provider for longest match
system.cpu.branchPred.tage.tageLongestMatchProvider::5            0                       # TAGE provider for longest match
system.cpu.branchPred.tage.tageLongestMatchProvider::6        15442                       # TAGE provider for longest match
system.cpu.branchPred.tage.tageLongestMatchProvider::7       387567                       # TAGE provider for longest match
system.cpu.branchPred.tage.tageLongestMatchProvider::8        93840                       # TAGE provider for longest match
system.cpu.branchPred.tage.tageLongestMatchProvider::9       471150                       # TAGE provider for longest match
system.cpu.branchPred.tage.tageLongestMatchProvider::10      4484575                       # TAGE provider for longest match
system.cpu.branchPred.tage.tageLongestMatchProvider::11       808384                       # TAGE provider for longest match
system.cpu.branchPred.tage.tageLongestMatchProvider::12       437856                       # TAGE provider for longest match
system.cpu.branchPred.tage.tageLongestMatchProvider::13      1124687                       # TAGE provider for longest match
system.cpu.branchPred.tage.tageLongestMatchProvider::14      2182759                       # TAGE provider for longest match
system.cpu.branchPred.tage.tageLongestMatchProvider::15      2209572                       # TAGE provider for longest match
system.cpu.branchPred.tage.tageLongestMatchProvider::16      1090167                       # TAGE provider for longest match
system.cpu.branchPred.tage.tageLongestMatchProvider::17       633862                       # TAGE provider for longest match
system.cpu.branchPred.tage.tageLongestMatchProvider::18      1223987                       # TAGE provider for longest match
system.cpu.branchPred.tage.tageLongestMatchProvider::19       725679                       # TAGE provider for longest match
system.cpu.branchPred.tage.tageLongestMatchProvider::20      1209826                       # TAGE provider for longest match
system.cpu.branchPred.tage.tageLongestMatchProvider::21            0                       # TAGE provider for longest match
system.cpu.branchPred.tage.tageLongestMatchProvider::22      1547125                       # TAGE provider for longest match
system.cpu.branchPred.tage.tageLongestMatchProvider::23            0                       # TAGE provider for longest match
system.cpu.branchPred.tage.tageLongestMatchProvider::24      5278095                       # TAGE provider for longest match
system.cpu.branchPred.tage.tageLongestMatchProvider::25            0                       # TAGE provider for longest match
system.cpu.branchPred.tage.tageLongestMatchProvider::26      2796624                       # TAGE provider for longest match
system.cpu.branchPred.tage.tageLongestMatchProvider::27            0                       # TAGE provider for longest match
system.cpu.branchPred.tage.tageLongestMatchProvider::28       669131                       # TAGE provider for longest match
system.cpu.branchPred.tage.tageLongestMatchProvider::29            0                       # TAGE provider for longest match
system.cpu.branchPred.tage.tageLongestMatchProvider::30      3100797                       # TAGE provider for longest match
system.cpu.branchPred.tage.tageLongestMatchProviderCorrect     30306904                       # Number of times TAGE Longest Match is the provider and the prediction is correct
system.cpu.branchPred.tage.tageLongestMatchProviderWouldHaveHit        10908                       # Number of times TAGE Alt Match is the provider, the prediction is wrong and Longest Match prediction was correct
system.cpu.branchPred.tage.tageLongestMatchProviderWrong       163002                       # Number of times TAGE Longest Match is the provider and the prediction is wrong
system.cpu.branchPred.usedRAS                  496627                       # Number of times the RAS was used to get a target.
system.cpu.branchPredindirectMispredicted          185                       # Number of mispredicted indirect branches.
system.cpu.cc_regfile_reads                 534054552                       # number of cc regfile reads
system.cpu.cc_regfile_writes                535045378                       # number of cc regfile writes
system.cpu.commit.amos                              0                       # Number of atomic instructions committed
system.cpu.commit.branchMispredicts            296547                       # The number of times a branch was mispredicted
system.cpu.commit.branches                   47778740                       # Number of branches committed
system.cpu.commit.bw_lim_events              79958957                       # number cycles where commit BW limit reached
system.cpu.commit.commitNonSpecStalls            1984                       # The number of times commit has been forced to stall to communicate backwards
system.cpu.commit.commitSquashedInsts        11216202                       # The number of squashed insts skipped by commit
system.cpu.commit.committedInsts           1000016747                       # Number of instructions committed
system.cpu.commit.committedOps             1002923961                       # Number of ops (including micro ops) committed
system.cpu.commit.committed_per_cycle::samples    417715613                       # Number of insts commited each cycle
system.cpu.commit.committed_per_cycle::mean     2.400973                       # Number of insts commited each cycle
system.cpu.commit.committed_per_cycle::stdev     3.056579                       # Number of insts commited each cycle
system.cpu.commit.committed_per_cycle::underflows            0      0.00%      0.00% # Number of insts commited each cycle
system.cpu.commit.committed_per_cycle::0    160759461     38.49%     38.49% # Number of insts commited each cycle
system.cpu.commit.committed_per_cycle::1    108094789     25.88%     64.36% # Number of insts commited each cycle
system.cpu.commit.committed_per_cycle::2     14186385      3.40%     67.76% # Number of insts commited each cycle
system.cpu.commit.committed_per_cycle::3     21943774      5.25%     73.01% # Number of insts commited each cycle
system.cpu.commit.committed_per_cycle::4     16165841      3.87%     76.88% # Number of insts commited each cycle
system.cpu.commit.committed_per_cycle::5      8956011      2.14%     79.03% # Number of insts commited each cycle
system.cpu.commit.committed_per_cycle::6      2042760      0.49%     79.52% # Number of insts commited each cycle
system.cpu.commit.committed_per_cycle::7      5607635      1.34%     80.86% # Number of insts commited each cycle
system.cpu.commit.committed_per_cycle::8     79958957     19.14%    100.00% # Number of insts commited each cycle
system.cpu.commit.committed_per_cycle::overflows            0      0.00%    100.00% # Number of insts commited each cycle
system.cpu.commit.committed_per_cycle::min_value            0                       # Number of insts commited each cycle
system.cpu.commit.committed_per_cycle::max_value            8                       # Number of insts commited each cycle
system.cpu.commit.committed_per_cycle::total    417715613                       # Number of insts commited each cycle
system.cpu.commit.fp_insts                          0                       # Number of committed floating point instructions.
system.cpu.commit.function_calls               392240                       # Number of function calls committed.
system.cpu.commit.int_insts                 953071037                       # Number of committed integer instructions.
system.cpu.commit.loads                     281956027                       # Number of loads committed
system.cpu.commit.membars                        1940                       # Number of memory barriers committed
system.cpu.commit.op_class_0::No_OpClass        82965      0.01%      0.01% # Class of committed instruction
system.cpu.commit.op_class_0::IntAlu        568033531     56.64%     56.65% # Class of committed instruction
system.cpu.commit.op_class_0::IntMult          445019      0.04%     56.69% # Class of committed instruction
system.cpu.commit.op_class_0::IntDiv               23      0.00%     56.69% # Class of committed instruction
system.cpu.commit.op_class_0::FloatAdd         670197      0.07%     56.76% # Class of committed instruction
system.cpu.commit.op_class_0::FloatCmp         545043      0.05%     56.81% # Class of committed instruction
system.cpu.commit.op_class_0::FloatCvt         301502      0.03%     56.84% # Class of committed instruction
system.cpu.commit.op_class_0::FloatMult        171646      0.02%     56.86% # Class of committed instruction
system.cpu.commit.op_class_0::FloatMultAcc       396081      0.04%     56.90% # Class of committed instruction
system.cpu.commit.op_class_0::FloatDiv         157918      0.02%     56.91% # Class of committed instruction
system.cpu.commit.op_class_0::FloatMisc        250918      0.03%     56.94% # Class of committed instruction
system.cpu.commit.op_class_0::FloatSqrt             0      0.00%     56.94% # Class of committed instruction
system.cpu.commit.op_class_0::SimdAdd          242769      0.02%     56.96% # Class of committed instruction
system.cpu.commit.op_class_0::SimdAddAcc            0      0.00%     56.96% # Class of committed instruction
system.cpu.commit.op_class_0::SimdAlu          566619      0.06%     57.02% # Class of committed instruction
system.cpu.commit.op_class_0::SimdCmp          322984      0.03%     57.05% # Class of committed instruction
system.cpu.commit.op_class_0::SimdCvt           98390      0.01%     57.06% # Class of committed instruction
system.cpu.commit.op_class_0::SimdMisc         281041      0.03%     57.09% # Class of committed instruction
system.cpu.commit.op_class_0::SimdMult              0      0.00%     57.09% # Class of committed instruction
system.cpu.commit.op_class_0::SimdMultAcc            0      0.00%     57.09% # Class of committed instruction
system.cpu.commit.op_class_0::SimdShift             0      0.00%     57.09% # Class of committed instruction
system.cpu.commit.op_class_0::SimdShiftAcc            0      0.00%     57.09% # Class of committed instruction
system.cpu.commit.op_class_0::SimdDiv               0      0.00%     57.09% # Class of committed instruction
system.cpu.commit.op_class_0::SimdSqrt              0      0.00%     57.09% # Class of committed instruction
system.cpu.commit.op_class_0::SimdFloatAdd            0      0.00%     57.09% # Class of committed instruction
system.cpu.commit.op_class_0::SimdFloatAlu            0      0.00%     57.09% # Class of committed instruction
system.cpu.commit.op_class_0::SimdFloatCmp            0      0.00%     57.09% # Class of committed instruction
system.cpu.commit.op_class_0::SimdFloatCvt            0      0.00%     57.09% # Class of committed instruction
system.cpu.commit.op_class_0::SimdFloatDiv            0      0.00%     57.09% # Class of committed instruction
system.cpu.commit.op_class_0::SimdFloatMisc            0      0.00%     57.09% # Class of committed instruction
system.cpu.commit.op_class_0::SimdFloatMult            0      0.00%     57.09% # Class of committed instruction
system.cpu.commit.op_class_0::SimdFloatMultAcc            0      0.00%     57.09% # Class of committed instruction
system.cpu.commit.op_class_0::SimdFloatSqrt            0      0.00%     57.09% # Class of committed instruction
system.cpu.commit.op_class_0::SimdReduceAdd            0      0.00%     57.09% # Class of committed instruction
system.cpu.commit.op_class_0::SimdReduceAlu            0      0.00%     57.09% # Class of committed instruction
system.cpu.commit.op_class_0::SimdReduceCmp            0      0.00%     57.09% # Class of committed instruction
system.cpu.commit.op_class_0::SimdFloatReduceAdd            0      0.00%     57.09% # Class of committed instruction
system.cpu.commit.op_class_0::SimdFloatReduceCmp            0      0.00%     57.09% # Class of committed instruction
system.cpu.commit.op_class_0::SimdAes               0      0.00%     57.09% # Class of committed instruction
system.cpu.commit.op_class_0::SimdAesMix            0      0.00%     57.09% # Class of committed instruction
system.cpu.commit.op_class_0::SimdSha1Hash            0      0.00%     57.09% # Class of committed instruction
system.cpu.commit.op_class_0::SimdSha1Hash2            0      0.00%     57.09% # Class of committed instruction
system.cpu.commit.op_class_0::SimdSha256Hash            0      0.00%     57.09% # Class of committed instruction
system.cpu.commit.op_class_0::SimdSha256Hash2            0      0.00%     57.09% # Class of committed instruction
system.cpu.commit.op_class_0::SimdShaSigma2            0      0.00%     57.09% # Class of committed instruction
system.cpu.commit.op_class_0::SimdShaSigma3            0      0.00%     57.09% # Class of committed instruction
system.cpu.commit.op_class_0::SimdPredAlu            0      0.00%     57.09% # Class of committed instruction
system.cpu.commit.op_class_0::MemRead       281956027     28.11%     85.20% # Class of committed instruction
system.cpu.commit.op_class_0::MemWrite      148401288     14.80%    100.00% # Class of committed instruction
system.cpu.commit.op_class_0::FloatMemRead            0      0.00%    100.00% # Class of committed instruction
system.cpu.commit.op_class_0::FloatMemWrite            0      0.00%    100.00% # Class of committed instruction
system.cpu.commit.op_class_0::IprAccess             0      0.00%    100.00% # Class of committed instruction
system.cpu.commit.op_class_0::InstPrefetch            0      0.00%    100.00% # Class of committed instruction
system.cpu.commit.op_class_0::total        1002923961                       # Class of committed instruction
system.cpu.commit.refs                      430357315                       # Number of memory references committed
system.cpu.commit.swp_count                         0                       # Number of s/w prefetches committed
system.cpu.commit.vec_insts                   5492541                       # Number of committed Vector instructions.
system.cpu.committedInsts                  1000000000                       # Number of Instructions Simulated
system.cpu.committedOps                    1002907214                       # Number of Ops (including micro ops) Simulated
system.cpu.cpi                               0.419447                       # CPI: Cycles Per Instruction
system.cpu.cpi_total                         0.419447                       # CPI: Total CPI of All Threads
system.cpu.decode.BlockedCycles             192232941                       # Number of cycles decode is blocked
system.cpu.decode.BranchMispred                  1329                       # Number of times decode detected a branch misprediction
system.cpu.decode.BranchResolved             32490344                       # Number of times decode resolved a branch
system.cpu.decode.DecodedInsts             1017465800                       # Number of instructions handled by decode
system.cpu.decode.IdleCycles                 71597235                       # Number of cycles decode is idle
system.cpu.decode.RunCycles                 127744679                       # Number of cycles decode is running
system.cpu.decode.SquashCycles                 306764                       # Number of cycles decode is squashing
system.cpu.decode.SquashedInsts                  4691                       # Number of squashed instructions handled by decode
system.cpu.decode.UnblockCycles              27458682                       # Number of cycles decode is unblocking
system.cpu.dtb.accesses                             0                       # DTB accesses
system.cpu.dtb.align_faults                         0                       # Number of TLB faults due to alignment restrictions
system.cpu.dtb.domain_faults                        0                       # Number of TLB faults due to domain restrictions
system.cpu.dtb.flush_entries                        0                       # Number of entries that have been flushed from TLB
system.cpu.dtb.flush_tlb                           18                       # Number of times complete TLB was flushed
system.cpu.dtb.flush_tlb_asid                       0                       # Number of times TLB was flushed by ASID
system.cpu.dtb.flush_tlb_mva                        0                       # Number of times TLB was flushed by MVA
system.cpu.dtb.flush_tlb_mva_asid                   0                       # Number of times TLB was flushed by MVA & ASID
system.cpu.dtb.hits                                 0                       # DTB hits
system.cpu.dtb.inst_accesses                        0                       # ITB inst accesses
system.cpu.dtb.inst_hits                            0                       # ITB inst hits
system.cpu.dtb.inst_misses                          0                       # ITB inst misses
system.cpu.dtb.misses                               0                       # DTB misses
system.cpu.dtb.perms_faults                         0                       # Number of TLB faults due to permissions restrictions
system.cpu.dtb.prefetch_faults                      0                       # Number of TLB faults due to prefetch
system.cpu.dtb.read_accesses                        0                       # DTB read accesses
system.cpu.dtb.read_hits                            0                       # DTB read hits
system.cpu.dtb.read_misses                          0                       # DTB read misses
system.cpu.dtb.stage2_mmu.stage2_tlb.accesses            0                       # DTB accesses
system.cpu.dtb.stage2_mmu.stage2_tlb.align_faults            0                       # Number of TLB faults due to alignment restrictions
system.cpu.dtb.stage2_mmu.stage2_tlb.domain_faults            0                       # Number of TLB faults due to domain restrictions
system.cpu.dtb.stage2_mmu.stage2_tlb.flush_entries            0                       # Number of entries that have been flushed from TLB
system.cpu.dtb.stage2_mmu.stage2_tlb.flush_tlb            0                       # Number of times complete TLB was flushed
system.cpu.dtb.stage2_mmu.stage2_tlb.flush_tlb_asid            0                       # Number of times TLB was flushed by ASID
system.cpu.dtb.stage2_mmu.stage2_tlb.flush_tlb_mva            0                       # Number of times TLB was flushed by MVA
system.cpu.dtb.stage2_mmu.stage2_tlb.flush_tlb_mva_asid            0                       # Number of times TLB was flushed by MVA & ASID
system.cpu.dtb.stage2_mmu.stage2_tlb.hits            0                       # DTB hits
system.cpu.dtb.stage2_mmu.stage2_tlb.inst_accesses            0                       # ITB inst accesses
system.cpu.dtb.stage2_mmu.stage2_tlb.inst_hits            0                       # ITB inst hits
system.cpu.dtb.stage2_mmu.stage2_tlb.inst_misses            0                       # ITB inst misses
system.cpu.dtb.stage2_mmu.stage2_tlb.misses            0                       # DTB misses
system.cpu.dtb.stage2_mmu.stage2_tlb.perms_faults            0                       # Number of TLB faults due to permissions restrictions
system.cpu.dtb.stage2_mmu.stage2_tlb.prefetch_faults            0                       # Number of TLB faults due to prefetch
system.cpu.dtb.stage2_mmu.stage2_tlb.read_accesses            0                       # DTB read accesses
system.cpu.dtb.stage2_mmu.stage2_tlb.read_hits            0                       # DTB read hits
system.cpu.dtb.stage2_mmu.stage2_tlb.read_misses            0                       # DTB read misses
system.cpu.dtb.stage2_mmu.stage2_tlb.walker.walkRequestOrigin_Requested::Data            0                       # Table walker requests started/completed, data/inst
system.cpu.dtb.stage2_mmu.stage2_tlb.walker.walkRequestOrigin_Requested::Inst            0                       # Table walker requests started/completed, data/inst
system.cpu.dtb.stage2_mmu.stage2_tlb.walker.walkRequestOrigin_Requested::total            0                       # Table walker requests started/completed, data/inst
system.cpu.dtb.stage2_mmu.stage2_tlb.walker.walkRequestOrigin_Completed::Data            0                       # Table walker requests started/completed, data/inst
system.cpu.dtb.stage2_mmu.stage2_tlb.walker.walkRequestOrigin_Completed::Inst            0                       # Table walker requests started/completed, data/inst
system.cpu.dtb.stage2_mmu.stage2_tlb.walker.walkRequestOrigin_Completed::total            0                       # Table walker requests started/completed, data/inst
system.cpu.dtb.stage2_mmu.stage2_tlb.walker.walkRequestOrigin::total            0                       # Table walker requests started/completed, data/inst
system.cpu.dtb.stage2_mmu.stage2_tlb.walker.walks            0                       # Table walker walks requested
system.cpu.dtb.stage2_mmu.stage2_tlb.write_accesses            0                       # DTB write accesses
system.cpu.dtb.stage2_mmu.stage2_tlb.write_hits            0                       # DTB write hits
system.cpu.dtb.stage2_mmu.stage2_tlb.write_misses            0                       # DTB write misses
system.cpu.dtb.walker.walkRequestOrigin_Requested::Data            0                       # Table walker requests started/completed, data/inst
system.cpu.dtb.walker.walkRequestOrigin_Requested::Inst            0                       # Table walker requests started/completed, data/inst
system.cpu.dtb.walker.walkRequestOrigin_Requested::total            0                       # Table walker requests started/completed, data/inst
system.cpu.dtb.walker.walkRequestOrigin_Completed::Data            0                       # Table walker requests started/completed, data/inst
system.cpu.dtb.walker.walkRequestOrigin_Completed::Inst            0                       # Table walker requests started/completed, data/inst
system.cpu.dtb.walker.walkRequestOrigin_Completed::total            0                       # Table walker requests started/completed, data/inst
system.cpu.dtb.walker.walkRequestOrigin::total            0                       # Table walker requests started/completed, data/inst
system.cpu.dtb.walker.walks                         0                       # Table walker walks requested
system.cpu.dtb.write_accesses                       0                       # DTB write accesses
system.cpu.dtb.write_hits                           0                       # DTB write hits
system.cpu.dtb.write_misses                         0                       # DTB write misses
system.cpu.fetch.Branches                    50659383                       # Number of branches that fetch encountered
system.cpu.fetch.CacheLines                 106002028                       # Number of cache lines fetched
system.cpu.fetch.Cycles                     312805263                       # Number of cycles fetch has run and was not squashing or blocked
system.cpu.fetch.IcacheSquashes                 93459                       # Number of outstanding Icache misses that were squashed
system.cpu.fetch.IcacheWaitRetryStallCycles          120                       # Number of stall cycles due to full MSHR
system.cpu.fetch.Insts                     1017486988                       # Number of instructions fetch has processed
system.cpu.fetch.MiscStallCycles                    9                       # Number of cycles fetch has spent waiting on interrupts, or bad addresses, or out of MSHRs
system.cpu.fetch.SquashCycles                  615858                       # Number of cycles fetch has spent squashing
system.cpu.fetch.branchRate                  0.120777                       # Number of branch fetches per cycle
system.cpu.fetch.icacheStallCycles          106226980                       # Number of cycles fetch is stalled on an Icache miss
system.cpu.fetch.predictedBranches           33257944                       # Number of branches that fetch has predicted taken
system.cpu.fetch.rate                        2.425784                       # Number of inst fetches per cycle
system.cpu.fetch.rateDist::samples          419340301                       # Number of instructions fetched each cycle (Total)
system.cpu.fetch.rateDist::mean              2.434447                       # Number of instructions fetched each cycle (Total)
system.cpu.fetch.rateDist::stdev             3.371741                       # Number of instructions fetched each cycle (Total)
system.cpu.fetch.rateDist::underflows               0      0.00%      0.00% # Number of instructions fetched each cycle (Total)
system.cpu.fetch.rateDist::0                242637557     57.86%     57.86% # Number of instructions fetched each cycle (Total)
system.cpu.fetch.rateDist::1                 15789431      3.77%     61.63% # Number of instructions fetched each cycle (Total)
system.cpu.fetch.rateDist::2                 32609422      7.78%     69.40% # Number of instructions fetched each cycle (Total)
system.cpu.fetch.rateDist::3                  5293865      1.26%     70.67% # Number of instructions fetched each cycle (Total)
system.cpu.fetch.rateDist::4                  1630048      0.39%     71.05% # Number of instructions fetched each cycle (Total)
system.cpu.fetch.rateDist::5                  5402072      1.29%     72.34% # Number of instructions fetched each cycle (Total)
system.cpu.fetch.rateDist::6                 17850512      4.26%     76.60% # Number of instructions fetched each cycle (Total)
system.cpu.fetch.rateDist::7                  1680921      0.40%     77.00% # Number of instructions fetched each cycle (Total)
system.cpu.fetch.rateDist::8                 96446473     23.00%    100.00% # Number of instructions fetched each cycle (Total)
system.cpu.fetch.rateDist::overflows                0      0.00%    100.00% # Number of instructions fetched each cycle (Total)
system.cpu.fetch.rateDist::min_value                0                       # Number of instructions fetched each cycle (Total)
system.cpu.fetch.rateDist::max_value                8                       # Number of instructions fetched each cycle (Total)
system.cpu.fetch.rateDist::total            419340301                       # Number of instructions fetched each cycle (Total)
system.cpu.idleCycles                          106270                       # Total number of cycles that the CPU has spent unscheduled due to idling
system.cpu.iew.branchMispredicts               426844                       # Number of branch mispredicts detected at execute
system.cpu.iew.exec_branches                 48966986                       # Number of branches executed
system.cpu.iew.exec_nop                         18737                       # number of nop insts executed
system.cpu.iew.exec_rate                     2.447153                       # Inst execution rate
system.cpu.iew.exec_refs                    448614548                       # number of memory reference insts executed
system.cpu.iew.exec_stores                  148559661                       # Number of stores executed
system.cpu.iew.exec_swp                             0                       # number of swp insts executed
system.cpu.iew.iewBlockCycles                10763418                       # Number of cycles IEW is blocking
system.cpu.iew.iewDispLoadInsts             284140605                       # Number of dispatched load instructions
system.cpu.iew.iewDispNonSpecInsts               2064                       # Number of dispatched non-speculative instructions
system.cpu.iew.iewDispSquashedInsts             99769                       # Number of squashed instructions skipped by dispatch
system.cpu.iew.iewDispStoreInsts            149155931                       # Number of dispatched store instructions
system.cpu.iew.iewDispatchedInsts          1014134299                       # Number of instructions dispatched to IQ
system.cpu.iew.iewExecLoadInsts             300054887                       # Number of load instructions executed
system.cpu.iew.iewExecSquashedInsts            509797                       # Number of squashed instructions skipped in execute
system.cpu.iew.iewExecutedInsts            1026449802                       # Number of executed instructions
system.cpu.iew.iewIQFullEvents                1535528                       # Number of times the IQ has become full, causing a stall
system.cpu.iew.iewIdleCycles                        0                       # Number of cycles IEW is idle
system.cpu.iew.iewLSQFullEvents              11758264                       # Number of times the LSQ has become full, causing a stall
system.cpu.iew.iewSquashCycles                 306764                       # Number of cycles IEW is squashing
system.cpu.iew.iewUnblockCycles              13856414                       # Number of cycles IEW is unblocking
system.cpu.iew.lsq.thread0.blockedLoads             0                       # Number of blocked loads due to partial load-store forwarding
system.cpu.iew.lsq.thread0.cacheBlocked       1938996                       # Number of times an access to memory failed due to the cache being blocked
system.cpu.iew.lsq.thread0.forwLoads         17430643                       # Number of loads that had data forwarded from stores
system.cpu.iew.lsq.thread0.ignoredResponses          116                       # Number of memory responses ignored because the instruction is squashed
system.cpu.iew.lsq.thread0.invAddrLoads             0                       # Number of loads ignored due to an invalid address
system.cpu.iew.lsq.thread0.invAddrSwpfs             0                       # Number of software prefetches ignored due to an invalid address
system.cpu.iew.lsq.thread0.memOrderViolation        10626                       # Number of memory ordering violations
system.cpu.iew.lsq.thread0.rescheduledLoads        81709                       # Number of loads that were rescheduled
system.cpu.iew.lsq.thread0.squashedLoads      2184560                       # Number of loads squashed
system.cpu.iew.lsq.thread0.squashedStores       754633                       # Number of stores squashed
system.cpu.iew.memOrderViolationEvents          10626                       # Number of memory order violations
system.cpu.iew.predictedNotTakenIncorrect       152192                       # Number of branches that were predicted not taken incorrectly
system.cpu.iew.predictedTakenIncorrect         274652                       # Number of branches that were predicted taken incorrectly
system.cpu.iew.wb_consumers                1479194525                       # num instructions consuming a value
system.cpu.iew.wb_count                    1009481021                       # cumulative count of insts written-back
system.cpu.iew.wb_fanout                     0.533310                       # average fanout of values written-back
system.cpu.iew.wb_producers                 788869344                       # num instructions producing a value
system.cpu.iew.wb_rate                       2.406698                       # insts written-back per cycle
system.cpu.iew.wb_sent                     1009668095                       # cumulative count of insts sent to commit
system.cpu.int_regfile_reads               2033209252                       # number of integer regfile reads
system.cpu.int_regfile_writes               806265882                       # number of integer regfile writes
system.cpu.ipc                               2.384094                       # IPC: Instructions Per Cycle
system.cpu.ipc_total                         2.384094                       # IPC: Total IPC of All Threads
system.cpu.iq.FU_type_0::No_OpClass            100513      0.01%      0.01% # Type of FU issued
system.cpu.iq.FU_type_0::IntAlu             572440328     55.74%     55.75% # Type of FU issued
system.cpu.iq.FU_type_0::IntMult               477787      0.05%     55.80% # Type of FU issued
system.cpu.iq.FU_type_0::IntDiv                    28      0.00%     55.80% # Type of FU issued
system.cpu.iq.FU_type_0::FloatAdd             1044716      0.10%     55.90% # Type of FU issued
system.cpu.iq.FU_type_0::FloatCmp              837020      0.08%     55.98% # Type of FU issued
system.cpu.iq.FU_type_0::FloatCvt              309404      0.03%     56.01% # Type of FU issued
system.cpu.iq.FU_type_0::FloatMult             172250      0.02%     56.03% # Type of FU issued
system.cpu.iq.FU_type_0::FloatMultAcc          397415      0.04%     56.07% # Type of FU issued
system.cpu.iq.FU_type_0::FloatDiv              168250      0.02%     56.08% # Type of FU issued
system.cpu.iq.FU_type_0::FloatMisc             261420      0.03%     56.11% # Type of FU issued
system.cpu.iq.FU_type_0::FloatSqrt                  0      0.00%     56.11% # Type of FU issued
system.cpu.iq.FU_type_0::SimdAdd               294239      0.03%     56.14% # Type of FU issued
system.cpu.iq.FU_type_0::SimdAddAcc                 0      0.00%     56.14% # Type of FU issued
system.cpu.iq.FU_type_0::SimdAlu               718606      0.07%     56.21% # Type of FU issued
system.cpu.iq.FU_type_0::SimdCmp               391501      0.04%     56.25% # Type of FU issued
system.cpu.iq.FU_type_0::SimdCvt               108172      0.01%     56.26% # Type of FU issued
system.cpu.iq.FU_type_0::SimdMisc              331712      0.03%     56.29% # Type of FU issued
system.cpu.iq.FU_type_0::SimdMult                   0      0.00%     56.29% # Type of FU issued
system.cpu.iq.FU_type_0::SimdMultAcc                0      0.00%     56.29% # Type of FU issued
system.cpu.iq.FU_type_0::SimdShift                  0      0.00%     56.29% # Type of FU issued
system.cpu.iq.FU_type_0::SimdShiftAcc               0      0.00%     56.29% # Type of FU issued
system.cpu.iq.FU_type_0::SimdDiv                    0      0.00%     56.29% # Type of FU issued
system.cpu.iq.FU_type_0::SimdSqrt                   0      0.00%     56.29% # Type of FU issued
system.cpu.iq.FU_type_0::SimdFloatAdd               0      0.00%     56.29% # Type of FU issued
system.cpu.iq.FU_type_0::SimdFloatAlu               0      0.00%     56.29% # Type of FU issued
system.cpu.iq.FU_type_0::SimdFloatCmp               0      0.00%     56.29% # Type of FU issued
system.cpu.iq.FU_type_0::SimdFloatCvt               0      0.00%     56.29% # Type of FU issued
system.cpu.iq.FU_type_0::SimdFloatDiv               0      0.00%     56.29% # Type of FU issued
system.cpu.iq.FU_type_0::SimdFloatMisc              0      0.00%     56.29% # Type of FU issued
system.cpu.iq.FU_type_0::SimdFloatMult              0      0.00%     56.29% # Type of FU issued
system.cpu.iq.FU_type_0::SimdFloatMultAcc            0      0.00%     56.29% # Type of FU issued
system.cpu.iq.FU_type_0::SimdFloatSqrt              0      0.00%     56.29% # Type of FU issued
system.cpu.iq.FU_type_0::SimdReduceAdd              0      0.00%     56.29% # Type of FU issued
system.cpu.iq.FU_type_0::SimdReduceAlu              0      0.00%     56.29% # Type of FU issued
system.cpu.iq.FU_type_0::SimdReduceCmp              0      0.00%     56.29% # Type of FU issued
system.cpu.iq.FU_type_0::SimdFloatReduceAdd            0      0.00%     56.29% # Type of FU issued
system.cpu.iq.FU_type_0::SimdFloatReduceCmp            0      0.00%     56.29% # Type of FU issued
system.cpu.iq.FU_type_0::SimdAes                    0      0.00%     56.29% # Type of FU issued
system.cpu.iq.FU_type_0::SimdAesMix                 0      0.00%     56.29% # Type of FU issued
system.cpu.iq.FU_type_0::SimdSha1Hash               0      0.00%     56.29% # Type of FU issued
system.cpu.iq.FU_type_0::SimdSha1Hash2              0      0.00%     56.29% # Type of FU issued
system.cpu.iq.FU_type_0::SimdSha256Hash             0      0.00%     56.29% # Type of FU issued
system.cpu.iq.FU_type_0::SimdSha256Hash2            0      0.00%     56.29% # Type of FU issued
system.cpu.iq.FU_type_0::SimdShaSigma2              0      0.00%     56.29% # Type of FU issued
system.cpu.iq.FU_type_0::SimdShaSigma3              0      0.00%     56.29% # Type of FU issued
system.cpu.iq.FU_type_0::SimdPredAlu                0      0.00%     56.29% # Type of FU issued
system.cpu.iq.FU_type_0::MemRead            300307133     29.24%     85.53% # Type of FU issued
system.cpu.iq.FU_type_0::MemWrite           148599111     14.47%    100.00% # Type of FU issued
system.cpu.iq.FU_type_0::FloatMemRead               0      0.00%    100.00% # Type of FU issued
system.cpu.iq.FU_type_0::FloatMemWrite              0      0.00%    100.00% # Type of FU issued
system.cpu.iq.FU_type_0::IprAccess                  0      0.00%    100.00% # Type of FU issued
system.cpu.iq.FU_type_0::InstPrefetch               0      0.00%    100.00% # Type of FU issued
system.cpu.iq.FU_type_0::total             1026959605                       # Type of FU issued
system.cpu.iq.fp_alu_accesses                       0                       # Number of floating point alu accesses
system.cpu.iq.fp_inst_queue_reads                   0                       # Number of floating instruction queue reads
system.cpu.iq.fp_inst_queue_wakeup_accesses            0                       # Number of floating instruction queue wakeup accesses
system.cpu.iq.fp_inst_queue_writes                  0                       # Number of floating instruction queue writes
system.cpu.iq.fu_busy_cnt                     9718611                       # FU busy when requested
system.cpu.iq.fu_busy_rate                   0.009463                       # FU busy rate (busy events/executed inst)
system.cpu.iq.fu_full::No_OpClass                   0      0.00%      0.00% # attempts to use FU when none available
system.cpu.iq.fu_full::IntAlu                  143116      1.47%      1.47% # attempts to use FU when none available
system.cpu.iq.fu_full::IntMult                     15      0.00%      1.47% # attempts to use FU when none available
system.cpu.iq.fu_full::IntDiv                       0      0.00%      1.47% # attempts to use FU when none available
system.cpu.iq.fu_full::FloatAdd                 75259      0.77%      2.25% # attempts to use FU when none available
system.cpu.iq.fu_full::FloatCmp                 96785      1.00%      3.24% # attempts to use FU when none available
system.cpu.iq.fu_full::FloatCvt                     1      0.00%      3.24% # attempts to use FU when none available
system.cpu.iq.fu_full::FloatMult                49856      0.51%      3.76% # attempts to use FU when none available
system.cpu.iq.fu_full::FloatMultAcc             67104      0.69%      4.45% # attempts to use FU when none available
system.cpu.iq.fu_full::FloatDiv                  3409      0.04%      4.48% # attempts to use FU when none available
system.cpu.iq.fu_full::FloatMisc                53040      0.55%      5.03% # attempts to use FU when none available
system.cpu.iq.fu_full::FloatSqrt                    0      0.00%      5.03% # attempts to use FU when none available
system.cpu.iq.fu_full::SimdAdd                      0      0.00%      5.03% # attempts to use FU when none available
system.cpu.iq.fu_full::SimdAddAcc                   0      0.00%      5.03% # attempts to use FU when none available
system.cpu.iq.fu_full::SimdAlu                  88074      0.91%      5.93% # attempts to use FU when none available
system.cpu.iq.fu_full::SimdCmp                  83462      0.86%      6.79% # attempts to use FU when none available
system.cpu.iq.fu_full::SimdCvt                      0      0.00%      6.79% # attempts to use FU when none available
system.cpu.iq.fu_full::SimdMisc                     0      0.00%      6.79% # attempts to use FU when none available
system.cpu.iq.fu_full::SimdMult                     0      0.00%      6.79% # attempts to use FU when none available
system.cpu.iq.fu_full::SimdMultAcc                  0      0.00%      6.79% # attempts to use FU when none available
system.cpu.iq.fu_full::SimdShift                    0      0.00%      6.79% # attempts to use FU when none available
system.cpu.iq.fu_full::SimdShiftAcc                 0      0.00%      6.79% # attempts to use FU when none available
system.cpu.iq.fu_full::SimdDiv                      0      0.00%      6.79% # attempts to use FU when none available
system.cpu.iq.fu_full::SimdSqrt                     0      0.00%      6.79% # attempts to use FU when none available
system.cpu.iq.fu_full::SimdFloatAdd                 0      0.00%      6.79% # attempts to use FU when none available
system.cpu.iq.fu_full::SimdFloatAlu                 0      0.00%      6.79% # attempts to use FU when none available
system.cpu.iq.fu_full::SimdFloatCmp                 0      0.00%      6.79% # attempts to use FU when none available
system.cpu.iq.fu_full::SimdFloatCvt                 0      0.00%      6.79% # attempts to use FU when none available
system.cpu.iq.fu_full::SimdFloatDiv                 0      0.00%      6.79% # attempts to use FU when none available
system.cpu.iq.fu_full::SimdFloatMisc                0      0.00%      6.79% # attempts to use FU when none available
system.cpu.iq.fu_full::SimdFloatMult                0      0.00%      6.79% # attempts to use FU when none available
system.cpu.iq.fu_full::SimdFloatMultAcc             0      0.00%      6.79% # attempts to use FU when none available
system.cpu.iq.fu_full::SimdFloatSqrt                0      0.00%      6.79% # attempts to use FU when none available
system.cpu.iq.fu_full::SimdReduceAdd                0      0.00%      6.79% # attempts to use FU when none available
system.cpu.iq.fu_full::SimdReduceAlu                0      0.00%      6.79% # attempts to use FU when none available
system.cpu.iq.fu_full::SimdReduceCmp                0      0.00%      6.79% # attempts to use FU when none available
system.cpu.iq.fu_full::SimdFloatReduceAdd            0      0.00%      6.79% # attempts to use FU when none available
system.cpu.iq.fu_full::SimdFloatReduceCmp            0      0.00%      6.79% # attempts to use FU when none available
system.cpu.iq.fu_full::SimdAes                      0      0.00%      6.79% # attempts to use FU when none available
system.cpu.iq.fu_full::SimdAesMix                   0      0.00%      6.79% # attempts to use FU when none available
system.cpu.iq.fu_full::SimdSha1Hash                 0      0.00%      6.79% # attempts to use FU when none available
system.cpu.iq.fu_full::SimdSha1Hash2                0      0.00%      6.79% # attempts to use FU when none available
system.cpu.iq.fu_full::SimdSha256Hash               0      0.00%      6.79% # attempts to use FU when none available
system.cpu.iq.fu_full::SimdSha256Hash2              0      0.00%      6.79% # attempts to use FU when none available
system.cpu.iq.fu_full::SimdShaSigma2                0      0.00%      6.79% # attempts to use FU when none available
system.cpu.iq.fu_full::SimdShaSigma3                0      0.00%      6.79% # attempts to use FU when none available
system.cpu.iq.fu_full::SimdPredAlu                  0      0.00%      6.79% # attempts to use FU when none available
system.cpu.iq.fu_full::MemRead                8889987     91.47%     98.27% # attempts to use FU when none available
system.cpu.iq.fu_full::MemWrite                168503      1.73%    100.00% # attempts to use FU when none available
system.cpu.iq.fu_full::FloatMemRead                 0      0.00%    100.00% # attempts to use FU when none available
system.cpu.iq.fu_full::FloatMemWrite                0      0.00%    100.00% # attempts to use FU when none available
system.cpu.iq.fu_full::IprAccess                    0      0.00%    100.00% # attempts to use FU when none available
system.cpu.iq.fu_full::InstPrefetch                 0      0.00%    100.00% # attempts to use FU when none available
system.cpu.iq.int_alu_accesses             1028885642                       # Number of integer alu accesses
system.cpu.iq.int_inst_queue_reads         2467965946                       # Number of integer instruction queue reads
system.cpu.iq.int_inst_queue_wakeup_accesses   1002280170                       # Number of integer instruction queue wakeup accesses
system.cpu.iq.int_inst_queue_writes        1014816033                       # Number of integer instruction queue writes
system.cpu.iq.iqInstsAdded                 1014113498                       # Number of instructions added to the IQ (excludes non-spec)
system.cpu.iq.iqInstsIssued                1026959605                       # Number of instructions issued
system.cpu.iq.iqNonSpecInstsAdded                2064                       # Number of non-speculative instructions added to the IQ
system.cpu.iq.iqSquashedInstsExamined        11208285                       # Number of squashed instructions iterated over during squash; mainly for profiling
system.cpu.iq.iqSquashedInstsIssued             52594                       # Number of squashed instructions issued
system.cpu.iq.iqSquashedNonSpecRemoved             80                       # Number of squashed non-spec instructions that were removed
system.cpu.iq.iqSquashedOperandsExamined     12183438                       # Number of squashed operands that are examined and possibly removed from graph
system.cpu.iq.issued_per_cycle::samples     419340301                       # Number of insts issued each cycle
system.cpu.iq.issued_per_cycle::mean         2.448989                       # Number of insts issued each cycle
system.cpu.iq.issued_per_cycle::stdev        1.979990                       # Number of insts issued each cycle
system.cpu.iq.issued_per_cycle::underflows            0      0.00%      0.00% # Number of insts issued each cycle
system.cpu.iq.issued_per_cycle::0            88525528     21.11%     21.11% # Number of insts issued each cycle
system.cpu.iq.issued_per_cycle::1            72678561     17.33%     38.44% # Number of insts issued each cycle
system.cpu.iq.issued_per_cycle::2            66780384     15.93%     54.37% # Number of insts issued each cycle
system.cpu.iq.issued_per_cycle::3            61538866     14.68%     69.04% # Number of insts issued each cycle
system.cpu.iq.issued_per_cycle::4            60964166     14.54%     83.58% # Number of insts issued each cycle
system.cpu.iq.issued_per_cycle::5            37511752      8.95%     92.53% # Number of insts issued each cycle
system.cpu.iq.issued_per_cycle::6            18441269      4.40%     96.92% # Number of insts issued each cycle
system.cpu.iq.issued_per_cycle::7             9157560      2.18%     99.11% # Number of insts issued each cycle
system.cpu.iq.issued_per_cycle::8             3742215      0.89%    100.00% # Number of insts issued each cycle
system.cpu.iq.issued_per_cycle::overflows            0      0.00%    100.00% # Number of insts issued each cycle
system.cpu.iq.issued_per_cycle::min_value            0                       # Number of insts issued each cycle
system.cpu.iq.issued_per_cycle::max_value            8                       # Number of insts issued each cycle
system.cpu.iq.issued_per_cycle::total       419340301                       # Number of insts issued each cycle
system.cpu.iq.rate                           2.448368                       # Inst issue rate
system.cpu.iq.vec_alu_accesses                7692061                       # Number of vector alu accesses
system.cpu.iq.vec_inst_queue_reads           15064764                       # Number of vector instruction queue reads
system.cpu.iq.vec_inst_queue_wakeup_accesses      7200851                       # Number of vector instruction queue wakeup accesses
system.cpu.iq.vec_inst_queue_writes          10518403                       # Number of vector instruction queue writes
system.cpu.itb.accesses                             0                       # DTB accesses
system.cpu.itb.align_faults                         0                       # Number of TLB faults due to alignment restrictions
system.cpu.itb.domain_faults                        0                       # Number of TLB faults due to domain restrictions
system.cpu.itb.flush_entries                        0                       # Number of entries that have been flushed from TLB
system.cpu.itb.flush_tlb                           18                       # Number of times complete TLB was flushed
system.cpu.itb.flush_tlb_asid                       0                       # Number of times TLB was flushed by ASID
system.cpu.itb.flush_tlb_mva                        0                       # Number of times TLB was flushed by MVA
system.cpu.itb.flush_tlb_mva_asid                   0                       # Number of times TLB was flushed by MVA & ASID
system.cpu.itb.hits                                 0                       # DTB hits
system.cpu.itb.inst_accesses                        0                       # ITB inst accesses
system.cpu.itb.inst_hits                            0                       # ITB inst hits
system.cpu.itb.inst_misses                          0                       # ITB inst misses
system.cpu.itb.misses                               0                       # DTB misses
system.cpu.itb.perms_faults                         0                       # Number of TLB faults due to permissions restrictions
system.cpu.itb.prefetch_faults                      0                       # Number of TLB faults due to prefetch
system.cpu.itb.read_accesses                        0                       # DTB read accesses
system.cpu.itb.read_hits                            0                       # DTB read hits
system.cpu.itb.read_misses                          0                       # DTB read misses
system.cpu.itb.stage2_mmu.stage2_tlb.accesses            0                       # DTB accesses
system.cpu.itb.stage2_mmu.stage2_tlb.align_faults            0                       # Number of TLB faults due to alignment restrictions
system.cpu.itb.stage2_mmu.stage2_tlb.domain_faults            0                       # Number of TLB faults due to domain restrictions
system.cpu.itb.stage2_mmu.stage2_tlb.flush_entries            0                       # Number of entries that have been flushed from TLB
system.cpu.itb.stage2_mmu.stage2_tlb.flush_tlb            0                       # Number of times complete TLB was flushed
system.cpu.itb.stage2_mmu.stage2_tlb.flush_tlb_asid            0                       # Number of times TLB was flushed by ASID
system.cpu.itb.stage2_mmu.stage2_tlb.flush_tlb_mva            0                       # Number of times TLB was flushed by MVA
system.cpu.itb.stage2_mmu.stage2_tlb.flush_tlb_mva_asid            0                       # Number of times TLB was flushed by MVA & ASID
system.cpu.itb.stage2_mmu.stage2_tlb.hits            0                       # DTB hits
system.cpu.itb.stage2_mmu.stage2_tlb.inst_accesses            0                       # ITB inst accesses
system.cpu.itb.stage2_mmu.stage2_tlb.inst_hits            0                       # ITB inst hits
system.cpu.itb.stage2_mmu.stage2_tlb.inst_misses            0                       # ITB inst misses
system.cpu.itb.stage2_mmu.stage2_tlb.misses            0                       # DTB misses
system.cpu.itb.stage2_mmu.stage2_tlb.perms_faults            0                       # Number of TLB faults due to permissions restrictions
system.cpu.itb.stage2_mmu.stage2_tlb.prefetch_faults            0                       # Number of TLB faults due to prefetch
system.cpu.itb.stage2_mmu.stage2_tlb.read_accesses            0                       # DTB read accesses
system.cpu.itb.stage2_mmu.stage2_tlb.read_hits            0                       # DTB read hits
system.cpu.itb.stage2_mmu.stage2_tlb.read_misses            0                       # DTB read misses
system.cpu.itb.stage2_mmu.stage2_tlb.walker.walkRequestOrigin_Requested::Data            0                       # Table walker requests started/completed, data/inst
system.cpu.itb.stage2_mmu.stage2_tlb.walker.walkRequestOrigin_Requested::Inst            0                       # Table walker requests started/completed, data/inst
system.cpu.itb.stage2_mmu.stage2_tlb.walker.walkRequestOrigin_Requested::total            0                       # Table walker requests started/completed, data/inst
system.cpu.itb.stage2_mmu.stage2_tlb.walker.walkRequestOrigin_Completed::Data            0                       # Table walker requests started/completed, data/inst
system.cpu.itb.stage2_mmu.stage2_tlb.walker.walkRequestOrigin_Completed::Inst            0                       # Table walker requests started/completed, data/inst
system.cpu.itb.stage2_mmu.stage2_tlb.walker.walkRequestOrigin_Completed::total            0                       # Table walker requests started/completed, data/inst
system.cpu.itb.stage2_mmu.stage2_tlb.walker.walkRequestOrigin::total            0                       # Table walker requests started/completed, data/inst
system.cpu.itb.stage2_mmu.stage2_tlb.walker.walks            0                       # Table walker walks requested
system.cpu.itb.stage2_mmu.stage2_tlb.write_accesses            0                       # DTB write accesses
system.cpu.itb.stage2_mmu.stage2_tlb.write_hits            0                       # DTB write hits
system.cpu.itb.stage2_mmu.stage2_tlb.write_misses            0                       # DTB write misses
system.cpu.itb.walker.walkRequestOrigin_Requested::Data            0                       # Table walker requests started/completed, data/inst
system.cpu.itb.walker.walkRequestOrigin_Requested::Inst            0                       # Table walker requests started/completed, data/inst
system.cpu.itb.walker.walkRequestOrigin_Requested::total            0                       # Table walker requests started/completed, data/inst
system.cpu.itb.walker.walkRequestOrigin_Completed::Data            0                       # Table walker requests started/completed, data/inst
system.cpu.itb.walker.walkRequestOrigin_Completed::Inst            0                       # Table walker requests started/completed, data/inst
system.cpu.itb.walker.walkRequestOrigin_Completed::total            0                       # Table walker requests started/completed, data/inst
system.cpu.itb.walker.walkRequestOrigin::total            0                       # Table walker requests started/completed, data/inst
system.cpu.itb.walker.walks                         0                       # Table walker walks requested
system.cpu.itb.write_accesses                       0                       # DTB write accesses
system.cpu.itb.write_hits                           0                       # DTB write hits
system.cpu.itb.write_misses                         0                       # DTB write misses
system.cpu.memDep0.conflictingLoads          28244694                       # Number of conflicting loads.
system.cpu.memDep0.conflictingStores         59395340                       # Number of conflicting stores.
system.cpu.memDep0.insertedLoads            284140605                       # Number of loads inserted to the mem dependence unit.
system.cpu.memDep0.insertedStores           149155931                       # Number of stores inserted to the mem dependence unit.
system.cpu.misc_regfile_reads               619784514                       # number of misc regfile reads
system.cpu.misc_regfile_writes                2362578                       # number of misc regfile writes
system.cpu.numCycles                        419446571                       # number of cpu cycles simulated
system.cpu.numWorkItemsCompleted                    0                       # number of work items this cpu completed
system.cpu.numWorkItemsStarted                      0                       # number of work items this cpu started
system.cpu.rename.BlockCycles                30250710                       # Number of cycles rename is blocking
system.cpu.rename.CommittedMaps            1341065241                       # Number of HB maps that are committed
system.cpu.rename.IQFullEvents               21204669                       # Number of times rename has blocked due to IQ full
system.cpu.rename.IdleCycles                 82798923                       # Number of cycles rename is idle
system.cpu.rename.LQFullEvents               73177918                       # Number of times rename has blocked due to LQ full
system.cpu.rename.ROBFullEvents                 53500                       # Number of times rename has blocked due to ROB full
system.cpu.rename.RenameLookups            2577229669                       # Number of register rename lookups that rename has made
system.cpu.rename.RenamedInsts             1016037389                       # Number of instructions processed by rename
system.cpu.rename.RenamedOperands          1359030082                       # Number of destination operands rename has renamed
system.cpu.rename.RunCycles                 143321709                       # Number of cycles rename is running
system.cpu.rename.SQFullEvents               66390331                       # Number of times rename has blocked due to SQ full
system.cpu.rename.SquashCycles                 306764                       # Number of cycles rename is squashing
system.cpu.rename.UnblockCycles             161636577                       # Number of cycles rename is unblocking
system.cpu.rename.UndoneMaps                 17964730                       # Number of HB maps that are undone due to squashing
system.cpu.rename.int_rename_lookups       2008556425                       # Number of integer rename lookups
system.cpu.rename.serializeStallCycles        1025618                       # count of cycles rename stalled for serializing inst
system.cpu.rename.serializingInsts              78246                       # count of serializing insts renamed
system.cpu.rename.skidInsts                 158866930                       # count of insts added to the skid buffer
system.cpu.rename.tempSerializingInsts           2076                       # count of temporary serializing insts renamed
system.cpu.rename.vec_rename_lookups         10934866                       # Number of vector rename lookups
system.cpu.rob.rob_reads                   1351891515                       # The number of ROB reads
system.cpu.rob.rob_writes                  2029906620                       # The number of ROB writes
system.cpu.timesIdled                            1155                       # Number of times that the entire CPU went into an idle state and unscheduled itself
system.cpu.vec_regfile_reads                  9280247                       # number of vector regfile reads
system.cpu.vec_regfile_writes                 6185203                       # number of vector regfile writes
system.cpu.workload.numSyscalls                    43                       # Number of system calls
system.membus.snoop_filter.hit_multi_requests            0                       # Number of requests hitting in the snoop filter with multiple (>1) holders of the requested data.
system.membus.snoop_filter.hit_multi_snoops            0                       # Number of snoops hitting in the snoop filter with multiple (>1) holders of the requested data.
system.membus.snoop_filter.hit_single_requests       729665                       # Number of requests hitting in the snoop filter with a single holder of the requested data.
system.membus.snoop_filter.hit_single_snoops            0                       # Number of snoops hitting in the snoop filter with a single holder of the requested data.
system.membus.snoop_filter.tot_requests       1492600                       # Total number of requests made to the snoop filter.
system.membus.snoop_filter.tot_snoops               0                       # Total number of snoops made to the snoop filter.
system.tol2bus.snoop_filter.hit_multi_requests            1                       # Number of requests hitting in the snoop filter with multiple (>1) holders of the requested data.
system.tol2bus.snoop_filter.hit_multi_snoops            0                       # Number of snoops hitting in the snoop filter with multiple (>1) holders of the requested data.
system.tol2bus.snoop_filter.hit_single_requests     12866595                       # Number of requests hitting in the snoop filter with a single holder of the requested data.
system.tol2bus.snoop_filter.hit_single_snoops          559                       # Number of snoops hitting in the snoop filter with a single holder of the requested data.
system.tol2bus.snoop_filter.tot_requests     25734206                       # Total number of requests made to the snoop filter.
system.tol2bus.snoop_filter.tot_snoops            559                       # Total number of snoops made to the snoop filter.
system.membus.trans_dist::ReadResp               9670                       # Transaction distribution
system.membus.trans_dist::WritebackDirty       721917                       # Transaction distribution
system.membus.trans_dist::CleanEvict             7748                       # Transaction distribution
system.membus.trans_dist::ReadExReq            753242                       # Transaction distribution
system.membus.trans_dist::ReadExResp           753242                       # Transaction distribution
system.membus.trans_dist::ReadSharedReq          9670                       # Transaction distribution
system.membus.trans_dist::InvalidateReq            23                       # Transaction distribution
system.membus.pkt_count_system.l2.mem_side::system.mem_ctrls.port      2255512                       # Packet count per connected master and slave (bytes)
system.membus.pkt_count::total                2255512                       # Packet count per connected master and slave (bytes)
system.membus.pkt_size_system.l2.mem_side::system.mem_ctrls.port     95029056                       # Cumulative packet size per connected master and slave (bytes)
system.membus.pkt_size::total                95029056                       # Cumulative packet size per connected master and slave (bytes)
system.membus.snoops                                0                       # Total snoops (count)
system.membus.snoopTraffic                          0                       # Total snoop traffic (bytes)
system.membus.snoop_fanout::samples            762935                       # Request fanout histogram
system.membus.snoop_fanout::mean                    0                       # Request fanout histogram
system.membus.snoop_fanout::stdev                   0                       # Request fanout histogram
system.membus.snoop_fanout::underflows              0      0.00%      0.00% # Request fanout histogram
system.membus.snoop_fanout::0                  762935    100.00%    100.00% # Request fanout histogram
system.membus.snoop_fanout::1                       0      0.00%    100.00% # Request fanout histogram
system.membus.snoop_fanout::overflows               0      0.00%    100.00% # Request fanout histogram
system.membus.snoop_fanout::min_value               0                       # Request fanout histogram
system.membus.snoop_fanout::max_value               0                       # Request fanout histogram
system.membus.snoop_fanout::total              762935                       # Request fanout histogram
system.membus.reqLayer0.occupancy          4558391500                       # Layer occupancy (ticks)
system.membus.reqLayer0.utilization               2.2                       # Layer utilization (%)
system.membus.respLayer1.occupancy         4047927750                       # Layer occupancy (ticks)
system.membus.respLayer1.utilization              1.9                       # Layer utilization (%)
system.membus.power_state.pwrStateResidencyTicks::UNDEFINED 209723285000                       # Cumulative time (in ticks) in various power states
system.tol2bus.trans_dist::ReadResp           8481083                       # Transaction distribution
system.tol2bus.trans_dist::WritebackDirty     13501425                       # Transaction distribution
system.tol2bus.trans_dist::WritebackClean         1565                       # Transaction distribution
system.tol2bus.trans_dist::CleanEvict           93829                       # Transaction distribution
system.tol2bus.trans_dist::ReadExReq          4386329                       # Transaction distribution
system.tol2bus.trans_dist::ReadExResp         4386329                       # Transaction distribution
system.tol2bus.trans_dist::ReadCleanReq          2069                       # Transaction distribution
system.tol2bus.trans_dist::ReadSharedReq      8479014                       # Transaction distribution
system.tol2bus.trans_dist::InvalidateReq          199                       # Transaction distribution
system.tol2bus.trans_dist::InvalidateResp          199                       # Transaction distribution
system.tol2bus.pkt_count_system.cpu.icache.mem_side::system.l2.cpu_side         5703                       # Packet count per connected master and slave (bytes)
system.tol2bus.pkt_count_system.cpu.dcache.mem_side::system.l2.cpu_side     38596114                       # Packet count per connected master and slave (bytes)
system.tol2bus.pkt_count::total              38601817                       # Packet count per connected master and slave (bytes)
system.tol2bus.pkt_size_system.cpu.icache.mem_side::system.l2.cpu_side       232576                       # Cumulative packet size per connected master and slave (bytes)
system.tol2bus.pkt_size_system.cpu.dcache.mem_side::system.l2.cpu_side   1641270464                       # Cumulative packet size per connected master and slave (bytes)
system.tol2bus.pkt_size::total             1641503040                       # Cumulative packet size per connected master and slave (bytes)
system.tol2bus.snoops                          730224                       # Total snoops (count)
system.tol2bus.snoopTraffic                  46202688                       # Total snoop traffic (bytes)
system.tol2bus.snoop_fanout::samples         13597835                       # Request fanout histogram
system.tol2bus.snoop_fanout::mean            0.000041                       # Request fanout histogram
system.tol2bus.snoop_fanout::stdev           0.006417                       # Request fanout histogram
system.tol2bus.snoop_fanout::underflows             0      0.00%      0.00% # Request fanout histogram
system.tol2bus.snoop_fanout::0               13597275    100.00%    100.00% # Request fanout histogram
system.tol2bus.snoop_fanout::1                    560      0.00%    100.00% # Request fanout histogram
system.tol2bus.snoop_fanout::2                      0      0.00%    100.00% # Request fanout histogram
system.tol2bus.snoop_fanout::overflows              0      0.00%    100.00% # Request fanout histogram
system.tol2bus.snoop_fanout::min_value              0                       # Request fanout histogram
system.tol2bus.snoop_fanout::max_value              1                       # Request fanout histogram
system.tol2bus.snoop_fanout::total           13597835                       # Request fanout histogram
system.tol2bus.reqLayer0.occupancy        25648176000                       # Layer occupancy (ticks)
system.tol2bus.reqLayer0.utilization             12.2                       # Layer utilization (%)
system.tol2bus.respLayer1.occupancy       19298114499                       # Layer occupancy (ticks)
system.tol2bus.respLayer1.utilization             9.2                       # Layer utilization (%)
system.tol2bus.respLayer0.occupancy           3103999                       # Layer occupancy (ticks)
system.tol2bus.respLayer0.utilization             0.0                       # Layer utilization (%)
system.tol2bus.power_state.pwrStateResidencyTicks::UNDEFINED 209723285000                       # Cumulative time (in ticks) in various power states
system.voltage_domain.voltage                       1                       # Voltage in Volts
system.clk_domain.clock                          1000                       # Clock period in ticks
system.l2.demand_hits::.cpu.inst                  747                       # number of demand (read+write) hits
system.l2.demand_hits::.cpu.data             12103753                       # number of demand (read+write) hits
system.l2.demand_hits::total                 12104500                       # number of demand (read+write) hits
system.l2.overall_hits::.cpu.inst                 747                       # number of overall hits
system.l2.overall_hits::.cpu.data            12103753                       # number of overall hits
system.l2.overall_hits::total                12104500                       # number of overall hits
system.l2.demand_misses::.cpu.inst               1322                       # number of demand (read+write) misses
system.l2.demand_misses::.cpu.data             761590                       # number of demand (read+write) misses
system.l2.demand_misses::total                 762912                       # number of demand (read+write) misses
system.l2.overall_misses::.cpu.inst              1322                       # number of overall misses
system.l2.overall_misses::.cpu.data            761590                       # number of overall misses
system.l2.overall_misses::total                762912                       # number of overall misses
system.l2.demand_miss_latency::.cpu.inst    104787500                       # number of demand (read+write) miss cycles
system.l2.demand_miss_latency::.cpu.data  72336857500                       # number of demand (read+write) miss cycles
system.l2.demand_miss_latency::total      72441645000                       # number of demand (read+write) miss cycles
system.l2.overall_miss_latency::.cpu.inst    104787500                       # number of overall miss cycles
system.l2.overall_miss_latency::.cpu.data  72336857500                       # number of overall miss cycles
system.l2.overall_miss_latency::total     72441645000                       # number of overall miss cycles
system.l2.demand_accesses::.cpu.inst             2069                       # number of demand (read+write) accesses
system.l2.demand_accesses::.cpu.data         12865343                       # number of demand (read+write) accesses
system.l2.demand_accesses::total             12867412                       # number of demand (read+write) accesses
system.l2.overall_accesses::.cpu.inst            2069                       # number of overall (read+write) accesses
system.l2.overall_accesses::.cpu.data        12865343                       # number of overall (read+write) accesses
system.l2.overall_accesses::total            12867412                       # number of overall (read+write) accesses
system.l2.demand_miss_rate::.cpu.inst        0.638956                       # miss rate for demand accesses
system.l2.demand_miss_rate::.cpu.data        0.059197                       # miss rate for demand accesses
system.l2.demand_miss_rate::total            0.059290                       # miss rate for demand accesses
[...]
system.cpu.icache.tags.occ_task_id_percent::1024     0.984375                       # Percentage of cache occupancy per task id
system.cpu.icache.tags.tag_accesses         212006125                       # Number of tag accesses
system.cpu.icache.tags.data_accesses        212006125                       # Number of data accesses
system.cpu.icache.tags.power_state.pwrStateResidencyTicks::UNDEFINED 209723285000                       # Cumulative time (in ticks) in various power states
system.cpu.dtb.walker.power_state.pwrStateResidencyTicks::UNDEFINED 209723285000                       # Cumulative time (in ticks) in various power states
system.cpu.dtb.stage2_mmu.stage2_tlb.walker.power_state.pwrStateResidencyTicks::UNDEFINED 209723285000                       # Cumulative time (in ticks) in various power states
system.cpu.itb.walker.power_state.pwrStateResidencyTicks::UNDEFINED 209723285000                       # Cumulative time (in ticks) in various power states
system.cpu.itb.stage2_mmu.stage2_tlb.walker.power_state.pwrStateResidencyTicks::UNDEFINED 209723285000                       # Cumulative time (in ticks) in various power states
system.cpu.dcache.demand_hits::.cpu.data    368636943                       # number of demand (read+write) hits
system.cpu.dcache.demand_hits::total        368636943                       # number of demand (read+write) hits
system.cpu.dcache.overall_hits::.cpu.data    368638169                       # number of overall hits
system.cpu.dcache.overall_hits::total       368638169                       # number of overall hits
system.cpu.dcache.demand_misses::.cpu.data     46054958                       # number of demand (read+write) misses
system.cpu.dcache.demand_misses::total       46054958                       # number of demand (read+write) misses
system.cpu.dcache.overall_misses::.cpu.data     46054977                       # number of overall misses
system.cpu.dcache.overall_misses::total      46054977                       # number of overall misses
system.cpu.dcache.demand_miss_latency::.cpu.data 989259388790                       # number of demand (read+write) miss cycles
system.cpu.dcache.demand_miss_latency::total 989259388790                       # number of demand (read+write) miss cycles
system.cpu.dcache.overall_miss_latency::.cpu.data 989259388790                       # number of overall miss cycles
system.cpu.dcache.overall_miss_latency::total 989259388790                       # number of overall miss cycles
system.cpu.dcache.demand_accesses::.cpu.data    414691901                       # number of demand (read+write) accesses
system.cpu.dcache.demand_accesses::total    414691901                       # number of demand (read+write) accesses
system.cpu.dcache.overall_accesses::.cpu.data    414693146                       # number of overall (read+write) accesses
system.cpu.dcache.overall_accesses::total    414693146                       # number of overall (read+write) accesses
system.cpu.dcache.demand_miss_rate::.cpu.data     0.111058                       # miss rate for demand accesses
system.cpu.dcache.demand_miss_rate::total     0.111058                       # miss rate for demand accesses
system.cpu.dcache.overall_miss_rate::.cpu.data     0.111058                       # miss rate for overall accesses
system.cpu.dcache.overall_miss_rate::total     0.111058                       # miss rate for overall accesses
system.cpu.dcache.demand_avg_miss_latency::.cpu.data 21479.975919                       # average overall miss latency
system.cpu.dcache.demand_avg_miss_latency::total 21479.975919                       # average overall miss latency
system.cpu.dcache.overall_avg_miss_latency::.cpu.data 21479.967057                       # average overall miss latency
system.cpu.dcache.overall_avg_miss_latency::total 21479.967057                       # average overall miss latency
system.cpu.dcache.blocked_cycles::no_mshrs     30363350                       # number of cycles access was blocked
system.cpu.dcache.blocked_cycles::no_targets          125                       # number of cycles access was blocked
system.cpu.dcache.blocked::no_mshrs           2053033                       # number of cycles access was blocked
system.cpu.dcache.blocked::no_targets               2                       # number of cycles access was blocked
system.cpu.dcache.avg_blocked_cycles::no_mshrs    14.789509                       # average number of cycles each access was blocked
system.cpu.dcache.avg_blocked_cycles::no_targets    62.500000                       # average number of cycles each access was blocked
system.cpu.dcache.writebacks::.writebacks     12779508                       # number of writebacks
system.cpu.dcache.writebacks::total          12779508                       # number of writebacks
system.cpu.dcache.demand_mshr_hits::.cpu.data     33189422                       # number of demand (read+write) MSHR hits
system.cpu.dcache.demand_mshr_hits::total     33189422                       # number of demand (read+write) MSHR hits
system.cpu.dcache.overall_mshr_hits::.cpu.data     33189422                       # number of overall MSHR hits
system.cpu.dcache.overall_mshr_hits::total     33189422                       # number of overall MSHR hits
system.cpu.dcache.demand_mshr_misses::.cpu.data     12865536                       # number of demand (read+write) MSHR misses
system.cpu.dcache.demand_mshr_misses::total     12865536                       # number of demand (read+write) MSHR misses
system.cpu.dcache.overall_mshr_misses::.cpu.data     12865542                       # number of overall MSHR misses
system.cpu.dcache.overall_mshr_misses::total     12865542                       # number of overall MSHR misses
system.cpu.dcache.demand_mshr_miss_latency::.cpu.data 264492932005                       # number of demand (read+write) MSHR miss cycles
system.cpu.dcache.demand_mshr_miss_latency::total 264492932005                       # number of demand (read+write) MSHR miss cycles
system.cpu.dcache.overall_mshr_miss_latency::.cpu.data 264493346005                       # number of overall MSHR miss cycles
system.cpu.dcache.overall_mshr_miss_latency::total 264493346005                       # number of overall MSHR miss cycles
system.cpu.dcache.demand_mshr_miss_rate::.cpu.data     0.031024                       # mshr miss rate for demand accesses
system.cpu.dcache.demand_mshr_miss_rate::total     0.031024                       # mshr miss rate for demand accesses
system.cpu.dcache.overall_mshr_miss_rate::.cpu.data     0.031024                       # mshr miss rate for overall accesses
system.cpu.dcache.overall_mshr_miss_rate::total     0.031024                       # mshr miss rate for overall accesses
system.cpu.dcache.demand_avg_mshr_miss_latency::.cpu.data 20558.252062                       # average overall mshr miss latency
system.cpu.dcache.demand_avg_mshr_miss_latency::total 20558.252062                       # average overall mshr miss latency
system.cpu.dcache.overall_avg_mshr_miss_latency::.cpu.data 20558.274654                       # average overall mshr miss latency
system.cpu.dcache.overall_avg_mshr_miss_latency::total 20558.274654                       # average overall mshr miss latency
system.cpu.dcache.replacements               12865030                       # number of replacements
system.cpu.dcache.ReadReq_hits::.cpu.data    246765246                       # number of ReadReq hits
system.cpu.dcache.ReadReq_hits::total       246765246                       # number of ReadReq hits
system.cpu.dcache.ReadReq_misses::.cpu.data     19526676                       # number of ReadReq misses
system.cpu.dcache.ReadReq_misses::total      19526676                       # number of ReadReq misses
system.cpu.dcache.ReadReq_miss_latency::.cpu.data 267848992500                       # number of ReadReq miss cycles
system.cpu.dcache.ReadReq_miss_latency::total 267848992500                       # number of ReadReq miss cycles
system.cpu.dcache.ReadReq_accesses::.cpu.data    266291922                       # number of ReadReq accesses(hits+misses)
system.cpu.dcache.ReadReq_accesses::total    266291922                       # number of ReadReq accesses(hits+misses)
system.cpu.dcache.ReadReq_miss_rate::.cpu.data     0.073328                       # miss rate for ReadReq accesses
system.cpu.dcache.ReadReq_miss_rate::total     0.073328                       # miss rate for ReadReq accesses
system.cpu.dcache.ReadReq_avg_miss_latency::.cpu.data 13717.080803                       # average ReadReq miss latency
system.cpu.dcache.ReadReq_avg_miss_latency::total 13717.080803                       # average ReadReq miss latency
system.cpu.dcache.ReadReq_mshr_hits::.cpu.data     11041933                       # number of ReadReq MSHR hits
system.cpu.dcache.ReadReq_mshr_hits::total     11041933                       # number of ReadReq MSHR hits
system.cpu.dcache.ReadReq_mshr_misses::.cpu.data      8484743                       # number of ReadReq MSHR misses
system.cpu.dcache.ReadReq_mshr_misses::total      8484743                       # number of ReadReq MSHR misses
system.cpu.dcache.ReadReq_mshr_miss_latency::.cpu.data 128772222500                       # number of ReadReq MSHR miss cycles
system.cpu.dcache.ReadReq_mshr_miss_latency::total 128772222500                       # number of ReadReq MSHR miss cycles
system.cpu.dcache.ReadReq_mshr_miss_rate::.cpu.data     0.031863                       # mshr miss rate for ReadReq accesses
system.cpu.dcache.ReadReq_mshr_miss_rate::total     0.031863                       # mshr miss rate for ReadReq accesses
system.cpu.dcache.ReadReq_avg_mshr_miss_latency::.cpu.data 15176.914905                       # average ReadReq mshr miss latency
system.cpu.dcache.ReadReq_avg_mshr_miss_latency::total 15176.914905                       # average ReadReq mshr miss latency
system.cpu.dcache.WriteReq_hits::.cpu.data    121871697                       # number of WriteReq hits
system.cpu.dcache.WriteReq_hits::total      121871697                       # number of WriteReq hits
system.cpu.dcache.WriteReq_misses::.cpu.data     26528275                       # number of WriteReq misses
system.cpu.dcache.WriteReq_misses::total     26528275                       # number of WriteReq misses
system.cpu.dcache.WriteReq_miss_latency::.cpu.data 721410174293                       # number of WriteReq miss cycles
system.cpu.dcache.WriteReq_miss_latency::total 721410174293                       # number of WriteReq miss cycles
system.cpu.dcache.WriteReq_accesses::.cpu.data    148399972                       # number of WriteReq accesses(hits+misses)
system.cpu.dcache.WriteReq_accesses::total    148399972                       # number of WriteReq accesses(hits+misses)
system.cpu.dcache.WriteReq_miss_rate::.cpu.data     0.178762                       # miss rate for WriteReq accesses
system.cpu.dcache.WriteReq_miss_rate::total     0.178762                       # miss rate for WriteReq accesses
system.cpu.dcache.WriteReq_avg_miss_latency::.cpu.data 27194.009949                       # average WriteReq miss latency
system.cpu.dcache.WriteReq_avg_miss_latency::total 27194.009949                       # average WriteReq miss latency
system.cpu.dcache.WriteReq_mshr_hits::.cpu.data     22147489                       # number of WriteReq MSHR hits
system.cpu.dcache.WriteReq_mshr_hits::total     22147489                       # number of WriteReq MSHR hits
system.cpu.dcache.WriteReq_mshr_misses::.cpu.data      4380786                       # number of WriteReq MSHR misses
system.cpu.dcache.WriteReq_mshr_misses::total      4380786                       # number of WriteReq MSHR misses
system.cpu.dcache.WriteReq_mshr_miss_latency::.cpu.data 135720494508                       # number of WriteReq MSHR miss cycles
system.cpu.dcache.WriteReq_mshr_miss_latency::total 135720494508                       # number of WriteReq MSHR miss cycles
system.cpu.dcache.WriteReq_mshr_miss_rate::.cpu.data     0.029520                       # mshr miss rate for WriteReq accesses
system.cpu.dcache.WriteReq_mshr_miss_rate::total     0.029520                       # mshr miss rate for WriteReq accesses
system.cpu.dcache.WriteReq_avg_mshr_miss_latency::.cpu.data 30980.854693                       # average WriteReq mshr miss latency
system.cpu.dcache.WriteReq_avg_mshr_miss_latency::total 30980.854693                       # average WriteReq mshr miss latency
system.cpu.dcache.SoftPFReq_hits::.cpu.data         1226                       # number of SoftPFReq hits
system.cpu.dcache.SoftPFReq_hits::total          1226                       # number of SoftPFReq hits
system.cpu.dcache.SoftPFReq_misses::.cpu.data           19                       # number of SoftPFReq misses
system.cpu.dcache.SoftPFReq_misses::total           19                       # number of SoftPFReq misses
system.cpu.dcache.SoftPFReq_accesses::.cpu.data         1245                       # number of SoftPFReq accesses(hits+misses)
system.cpu.dcache.SoftPFReq_accesses::total         1245                       # number of SoftPFReq accesses(hits+misses)
system.cpu.dcache.SoftPFReq_miss_rate::.cpu.data     0.015261                       # miss rate for SoftPFReq accesses
system.cpu.dcache.SoftPFReq_miss_rate::total     0.015261                       # miss rate for SoftPFReq accesses
system.cpu.dcache.SoftPFReq_mshr_misses::.cpu.data            6                       # number of SoftPFReq MSHR misses
system.cpu.dcache.SoftPFReq_mshr_misses::total            6                       # number of SoftPFReq MSHR misses
system.cpu.dcache.SoftPFReq_mshr_miss_latency::.cpu.data       414000                       # number of SoftPFReq MSHR miss cycles
system.cpu.dcache.SoftPFReq_mshr_miss_latency::total       414000                       # number of SoftPFReq MSHR miss cycles
system.cpu.dcache.SoftPFReq_mshr_miss_rate::.cpu.data     0.004819                       # mshr miss rate for SoftPFReq accesses
system.cpu.dcache.SoftPFReq_mshr_miss_rate::total     0.004819                       # mshr miss rate for SoftPFReq accesses
system.cpu.dcache.SoftPFReq_avg_mshr_miss_latency::.cpu.data        69000                       # average SoftPFReq mshr miss latency
system.cpu.dcache.SoftPFReq_avg_mshr_miss_latency::total        69000                       # average SoftPFReq mshr miss latency
system.cpu.dcache.WriteLineReq_misses::.cpu.data            7                       # number of WriteLineReq misses
system.cpu.dcache.WriteLineReq_misses::total            7                       # number of WriteLineReq misses
system.cpu.dcache.WriteLineReq_miss_latency::.cpu.data       221997                       # number of WriteLineReq miss cycles
system.cpu.dcache.WriteLineReq_miss_latency::total       221997                       # number of WriteLineReq miss cycles
system.cpu.dcache.WriteLineReq_accesses::.cpu.data            7                       # number of WriteLineReq accesses(hits+misses)
system.cpu.dcache.WriteLineReq_accesses::total            7                       # number of WriteLineReq accesses(hits+misses)
system.cpu.dcache.WriteLineReq_miss_rate::.cpu.data            1                       # miss rate for WriteLineReq accesses
system.cpu.dcache.WriteLineReq_miss_rate::total            1                       # miss rate for WriteLineReq accesses
system.cpu.dcache.WriteLineReq_avg_miss_latency::.cpu.data 31713.857143                       # average WriteLineReq miss latency
system.cpu.dcache.WriteLineReq_avg_miss_latency::total 31713.857143                       # average WriteLineReq miss latency
system.cpu.dcache.WriteLineReq_mshr_misses::.cpu.data            7                       # number of WriteLineReq MSHR misses
system.cpu.dcache.WriteLineReq_mshr_misses::total            7                       # number of WriteLineReq MSHR misses
system.cpu.dcache.WriteLineReq_mshr_miss_latency::.cpu.data       214997                       # number of WriteLineReq MSHR miss cycles
system.cpu.dcache.WriteLineReq_mshr_miss_latency::total       214997                       # number of WriteLineReq MSHR miss cycles
system.cpu.dcache.WriteLineReq_mshr_miss_rate::.cpu.data            1                       # mshr miss rate for WriteLineReq accesses
system.cpu.dcache.WriteLineReq_mshr_miss_rate::total            1                       # mshr miss rate for WriteLineReq accesses
system.cpu.dcache.WriteLineReq_avg_mshr_miss_latency::.cpu.data 30713.857143                       # average WriteLineReq mshr miss latency
system.cpu.dcache.WriteLineReq_avg_mshr_miss_latency::total 30713.857143                       # average WriteLineReq mshr miss latency
system.cpu.dcache.LoadLockedReq_hits::.cpu.data         1981                       # number of LoadLockedReq hits
system.cpu.dcache.LoadLockedReq_hits::total         1981                       # number of LoadLockedReq hits
system.cpu.dcache.LoadLockedReq_accesses::.cpu.data         1981                       # number of LoadLockedReq accesses(hits+misses)
system.cpu.dcache.LoadLockedReq_accesses::total         1981                       # number of LoadLockedReq accesses(hits+misses)
system.cpu.dcache.StoreCondReq_hits::.cpu.data         1940                       # number of StoreCondReq hits
system.cpu.dcache.StoreCondReq_hits::total         1940                       # number of StoreCondReq hits
system.cpu.dcache.StoreCondReq_accesses::.cpu.data         1940                       # number of StoreCondReq accesses(hits+misses)
system.cpu.dcache.StoreCondReq_accesses::total         1940                       # number of StoreCondReq accesses(hits+misses)
system.cpu.dcache.power_state.pwrStateResidencyTicks::UNDEFINED 209723285000                       # Cumulative time (in ticks) in various power states
system.cpu.dcache.tags.tagsinuse           511.773436                       # Cycle average of tags in use
system.cpu.dcache.tags.total_refs           381507632                       # Total number of references to valid blocks.
system.cpu.dcache.tags.sampled_refs          12865542                       # Sample count of references to valid blocks.
system.cpu.dcache.tags.avg_refs             29.653444                       # Average number of references to valid blocks.
system.cpu.dcache.tags.warmup_cycle            249500                       # Cycle when the warmup percentage was hit.
system.cpu.dcache.tags.occ_blocks::.cpu.data   511.773436                       # Average occupied blocks per requestor
system.cpu.dcache.tags.occ_percent::.cpu.data     0.999557                       # Average percentage of cache occupancy
system.cpu.dcache.tags.occ_percent::total     0.999557                       # Average percentage of cache occupancy
system.cpu.dcache.tags.occ_task_id_blocks::1024          512                       # Occupied blocks per task id
system.cpu.dcache.tags.age_task_id_blocks_1024::0          225                       # Occupied blocks per task id
system.cpu.dcache.tags.age_task_id_blocks_1024::1          286                       # Occupied blocks per task id
system.cpu.dcache.tags.age_task_id_blocks_1024::2            1                       # Occupied blocks per task id
system.cpu.dcache.tags.occ_task_id_percent::1024            1                       # Percentage of cache occupancy per task id
system.cpu.dcache.tags.tag_accesses         842259676                       # Number of tag accesses
system.cpu.dcache.tags.data_accesses        842259676                       # Number of data accesses
system.cpu.dcache.tags.power_state.pwrStateResidencyTicks::UNDEFINED 209723285000                       # Cumulative time (in ticks) in various power states
system.cpu.power_state.pwrStateResidencyTicks::ON 209723285000                       # Cumulative time (in ticks) in various power states

---------- End Simulation Statistics   ----------
