
---------- Begin Simulation Statistics ----------
final_tick                                 5118726500                       # Number of ticks from beginning of simulation (restored from checkpoints and never reset)
host_inst_rate                                  59965                       # Simulator instruction rate (inst/s)
host_mem_usage                                 873680                       # Number of bytes of host memory used
host_op_rate                                    67802                       # Simulator op (including micro ops) rate (op/s)
host_seconds                                   287.98                       # Real time elapsed on the host
host_tick_rate                               17774427                       # Simulator tick rate (ticks/s)
sim_freq                                 1000000000000                       # Frequency of simulated ticks
sim_insts                                    17268907                       # Number of instructions simulated
sim_ops                                      19525806                       # Number of ops (including micro ops) simulated
sim_seconds                                  0.005119                       # Number of seconds simulated
sim_ticks                                  5118726500                       # Number of ticks simulated
system.cpu.branchPred.BTBCorrect                    0                       # Number of correct BTB predictions (this stat may not work properly.
system.cpu.branchPred.BTBHitPct             99.750592                       # BTB Hit Percentage
system.cpu.branchPred.BTBHits                 2135731                       # Number of BTB hits
system.cpu.branchPred.BTBLookups              2141071                       # Number of BTB lookups
system.cpu.branchPred.RASInCorrect                 43                       # Number of incorrect RAS predictions.
system.cpu.branchPred.condIncorrect             29228                       # Number of conditional branches incorrect
system.cpu.branchPred.condPredicted           3221029                       # Number of conditional branches predicted
system.cpu.branchPred.indirectHits             174896                       # Number of indirect target hits.
system.cpu.branchPred.indirectLookups          176582                       # Number of indirect predictor lookups.
system.cpu.branchPred.indirectMisses             1686                       # Number of indirect misses.
system.cpu.branchPred.lookups                 5001926                       # Number of BP lookups
system.cpu.branchPred.loop_predictor.loopPredictorCorrect      2016722                       # Number of times the loop predictor is the provider and the prediction is correct
system.cpu.branchPred.loop_predictor.loopPredictorWrong      1059732                       # Number of times the loop predictor is the provider and the prediction is wrong
system.cpu.branchPred.statistical_corrector.scPredictorCorrect      1924087                       # Number of time the SC predictor is the provider and the prediction is correct
system.cpu.branchPred.statistical_corrector.scPredictorWrong      1152367                       # Number of time the SC predictor is the provider and the prediction is wrong
system.cpu.branchPred.tage.bimodalAltMatchProviderCorrect          605                       # Number of times TAGE Alt Match is the bimodal and it is the provider and the prediction is correct
system.cpu.branchPred.tage.bimodalAltMatchProviderWrong           68                       # Number of times TAGE Alt Match is the bimodal and it is the provider and the prediction is wrong
system.cpu.branchPred.tage.tageAltMatchProvider::0        44898                       # TAGE provider for alt match
system.cpu.branchPred.tage.tageAltMatchProvider::1            0                       # TAGE provider for alt match
system.cpu.branchPred.tage.tageAltMatchProvider::2         3643                       # TAGE provider for alt match
system.cpu.branchPred.tage.tageAltMatchProvider::3            0                       # TAGE provider for alt match
system.cpu.branchPred.tage.tageAltMatchProvider::4         5424                       # TAGE provider for alt match
system.cpu.branchPred.tage.tageAltMatchProvider::5            0                       # TAGE provider for alt match
system.cpu.branchPred.tage.tageAltMatchProvider::6          643                       # TAGE provider for alt match
system.cpu.branchPred.tage.tageAltMatchProvider::7        20144                       # TAGE provider for alt match
system.cpu.branchPred.tage.tageAltMatchProvider::8         8238                       # TAGE provider for alt match
system.cpu.branchPred.tage.tageAltMatchProvider::9         1184                       # TAGE provider for alt match
system.cpu.branchPred.tage.tageAltMatchProvider::10         4706                       # TAGE provider for alt match
system.cpu.branchPred.tage.tageAltMatchProvider::11          967                       # TAGE provider for alt match
system.cpu.branchPred.tage.tageAltMatchProvider::12         5722                       # TAGE provider for alt match
system.cpu.branchPred.tage.tageAltMatchProvider::13         2179                       # TAGE provider for alt match
system.cpu.branchPred.tage.tageAltMatchProvider::14         5344                       # TAGE provider for alt match
system.cpu.branchPred.tage.tageAltMatchProvider::15         4429                       # TAGE provider for alt match
system.cpu.branchPred.tage.tageAltMatchProvider::16        19224                       # TAGE provider for alt match
system.cpu.branchPred.tage.tageAltMatchProvider::17        42448                       # TAGE provider for alt match
system.cpu.branchPred.tage.tageAltMatchProvider::18         8618                       # TAGE provider for alt match
system.cpu.branchPred.tage.tageAltMatchProvider::19        18835                       # TAGE provider for alt match
system.cpu.branchPred.tage.tageAltMatchProvider::20        18319                       # TAGE provider for alt match
system.cpu.branchPred.tage.tageAltMatchProvider::21            0                       # TAGE provider for alt match
system.cpu.branchPred.tage.tageAltMatchProvider::22        31405                       # TAGE provider for alt match
system.cpu.branchPred.tage.tageAltMatchProvider::23            0                       # TAGE provider for alt match
system.cpu.branchPred.tage.tageAltMatchProvider::24        45978                       # TAGE provider for alt match
system.cpu.branchPred.tage.tageAltMatchProvider::25            0                       # TAGE provider for alt match
system.cpu.branchPred.tage.tageAltMatchProvider::26        38988                       # TAGE provider for alt match
system.cpu.branchPred.tage.tageAltMatchProvider::27            0                       # TAGE provider for alt match
system.cpu.branchPred.tage.tageAltMatchProvider::28        15009                       # TAGE provider for alt match
system.cpu.branchPred.tage.tageAltMatchProvider::29            0                       # TAGE provider for alt match
system.cpu.branchPred.tage.tageAltMatchProvider::30            0                       # TAGE provider for alt match
system.cpu.branchPred.tage.tageAltMatchProviderCorrect         6635                       # Number of times TAGE Alt Match is the provider and the prediction is correct
system.cpu.branchPred.tage.tageAltMatchProviderWouldHaveHit         3965                       # Number of times TAGE Longest Match is the provider, the prediction is wrong and Alt Match prediction was correct
system.cpu.branchPred.tage.tageAltMatchProviderWrong         2960                       # Number of times TAGE Alt Match is the provider and the prediction is wrong
system.cpu.branchPred.tage.tageBimodalProviderCorrect      2709874                       # Number of times there are no hits on the TAGE tables and the bimodal prediction is correct
system.cpu.branchPred.tage.tageBimodalProviderWrong         1234                       # Number of times there are no hits on the TAGE tables and the bimodal prediction is wrong
system.cpu.branchPred.tage.tageLongestMatchProvider::0            0                       # TAGE provider for longest match
system.cpu.branchPred.tage.tageLongestMatchProvider::1            0                       # TAGE provider for longest match
system.cpu.branchPred.tage.tageLongestMatchProvider::2        17370                       # TAGE provider for longest match
system.cpu.branchPred.tage.tageLongestMatchProvider::3            0                       # TAGE provider for longest match
system.cpu.branchPred.tage.tageLongestMatchProvider::4         5112                       # TAGE provider for longest match
system.cpu.branchPred.tage.tageLongestMatchProvider::5            0                       # TAGE provider for longest match
system.cpu.branchPred.tage.tageLongestMatchProvider::6        11361                       # TAGE provider for longest match
system.cpu.branchPred.tage.tageLongestMatchProvider::7         3623                       # TAGE provider for longest match
system.cpu.branchPred.tage.tageLongestMatchProvider::8         6587                       # TAGE provider for longest match
system.cpu.branchPred.tage.tageLongestMatchProvider::9         9573                       # TAGE provider for longest match
system.cpu.branchPred.tage.tageLongestMatchProvider::10        22696                       # TAGE provider for longest match
system.cpu.branchPred.tage.tageLongestMatchProvider::11         2991                       # TAGE provider for longest match
system.cpu.branchPred.tage.tageLongestMatchProvider::12         3526                       # TAGE provider for longest match
system.cpu.branchPred.tage.tageLongestMatchProvider::13         3375                       # TAGE provider for longest match
system.cpu.branchPred.tage.tageLongestMatchProvider::14         1593                       # TAGE provider for longest match
system.cpu.branchPred.tage.tageLongestMatchProvider::15         6261                       # TAGE provider for longest match
system.cpu.branchPred.tage.tageLongestMatchProvider::16          867                       # TAGE provider for longest match
system.cpu.branchPred.tage.tageLongestMatchProvider::17        21594                       # TAGE provider for longest match
system.cpu.branchPred.tage.tageLongestMatchProvider::18         3692                       # TAGE provider for longest match
system.cpu.branchPred.tage.tageLongestMatchProvider::19        15594                       # TAGE provider for longest match
system.cpu.branchPred.tage.tageLongestMatchProvider::20        25779                       # TAGE provider for longest match
system.cpu.branchPred.tage.tageLongestMatchProvider::21            0                       # TAGE provider for longest match
system.cpu.branchPred.tage.tageLongestMatchProvider::22        21701                       # TAGE provider for longest match
system.cpu.branchPred.tage.tageLongestMatchProvider::23            0                       # TAGE provider for longest match
system.cpu.branchPred.tage.tageLongestMatchProvider::24        38434                       # TAGE provider for longest match
system.cpu.branchPred.tage.tageLongestMatchProvider::25            0                       # TAGE provider for longest match
system.cpu.branchPred.tage.tageLongestMatchProvider::26        52046                       # TAGE provider for longest match
system.cpu.branchPred.tage.tageLongestMatchProvider::27            0                       # TAGE provider for longest match
system.cpu.branchPred.tage.tageLongestMatchProvider::28        51432                       # TAGE provider for longest match
system.cpu.branchPred.tage.tageLongestMatchProvider::29            0                       # TAGE provider for longest match
system.cpu.branchPred.tage.tageLongestMatchProvider::30        21138                       # TAGE provider for longest match
system.cpu.branchPred.tage.tageLongestMatchProviderCorrect       320666                       # Number of times TAGE Longest Match is the provider and the prediction is correct
system.cpu.branchPred.tage.tageLongestMatchProviderWouldHaveHit         1356                       # Number of times TAGE Alt Match is the provider, the prediction is wrong and Longest Match prediction was correct
system.cpu.branchPred.tage.tageLongestMatchProviderWrong        16084                       # Number of times TAGE Longest Match is the provider and the prediction is wrong
system.cpu.branchPred.usedRAS                  666899                       # Number of times the RAS was used to get a target.
system.cpu.branchPredindirectMispredicted          744                       # Number of mispredicted indirect branches.
system.cpu.cc_regfile_reads                   8695761                       # number of cc regfile reads
system.cpu.cc_regfile_writes                  6763695                       # number of cc regfile writes
system.cpu.commit.amos                              0                       # Number of atomic instructions committed
system.cpu.commit.branchMispredicts             27293                       # The number of times a branch was mispredicted
system.cpu.commit.branches                    4782384                       # Number of branches committed
system.cpu.commit.bw_lim_events                752530                       # number cycles where commit BW limit reached
system.cpu.commit.commitNonSpecStalls            1109                       # The number of times commit has been forced to stall to communicate backwards
system.cpu.commit.commitSquashedInsts          847406                       # The number of squashed insts skipped by commit
system.cpu.commit.committedInsts             17272408                       # Number of instructions committed
system.cpu.commit.committedOps               19529307                       # Number of ops (including micro ops) committed
system.cpu.commit.committed_per_cycle::samples      9985150                       # Number of insts commited each cycle
system.cpu.commit.committed_per_cycle::mean     1.955835                       # Number of insts commited each cycle
system.cpu.commit.committed_per_cycle::stdev     2.398220                       # Number of insts commited each cycle
system.cpu.commit.committed_per_cycle::underflows            0      0.00%      0.00% # Number of insts commited each cycle
system.cpu.commit.committed_per_cycle::0      3902786     39.09%     39.09% # Number of insts commited each cycle
system.cpu.commit.committed_per_cycle::1      1786512     17.89%     56.98% # Number of insts commited each cycle
system.cpu.commit.committed_per_cycle::2      1466661     14.69%     71.67% # Number of insts commited each cycle
system.cpu.commit.committed_per_cycle::3       621808      6.23%     77.89% # Number of insts commited each cycle
system.cpu.commit.committed_per_cycle::4       759785      7.61%     85.50% # Number of insts commited each cycle
system.cpu.commit.committed_per_cycle::5       374758      3.75%     89.26% # Number of insts commited each cycle
system.cpu.commit.committed_per_cycle::6       231291      2.32%     91.57% # Number of insts commited each cycle
system.cpu.commit.committed_per_cycle::7        89019      0.89%     92.46% # Number of insts commited each cycle
system.cpu.commit.committed_per_cycle::8       752530      7.54%    100.00% # Number of insts commited each cycle
system.cpu.commit.committed_per_cycle::overflows            0      0.00%    100.00% # Number of insts commited each cycle
system.cpu.commit.committed_per_cycle::min_value            0                       # Number of insts commited each cycle
system.cpu.commit.committed_per_cycle::max_value            8                       # Number of insts commited each cycle
system.cpu.commit.committed_per_cycle::total      9985150                       # Number of insts commited each cycle
system.cpu.commit.fp_insts                          0                       # Number of committed floating point instructions.
system.cpu.commit.function_calls               655562                       # Number of function calls committed.
system.cpu.commit.int_insts                  16935989                       # Number of committed integer instructions.
system.cpu.commit.loads                       2002676                       # Number of loads committed
system.cpu.commit.membars                        1100                       # Number of memory barriers committed
system.cpu.commit.op_class_0::No_OpClass           17      0.00%      0.00% # Class of committed instruction
system.cpu.commit.op_class_0::IntAlu         15822086     81.02%     81.02% # Class of committed instruction
system.cpu.commit.op_class_0::IntMult           40140      0.21%     81.22% # Class of committed instruction
system.cpu.commit.op_class_0::IntDiv               22      0.00%     81.22% # Class of committed instruction
system.cpu.commit.op_class_0::FloatAdd              0      0.00%     81.22% # Class of committed instruction
system.cpu.commit.op_class_0::FloatCmp              0      0.00%     81.22% # Class of committed instruction
system.cpu.commit.op_class_0::FloatCvt              0      0.00%     81.22% # Class of committed instruction
system.cpu.commit.op_class_0::FloatMult             0      0.00%     81.22% # Class of committed instruction
system.cpu.commit.op_class_0::FloatMultAcc            0      0.00%     81.22% # Class of committed instruction
system.cpu.commit.op_class_0::FloatDiv              0      0.00%     81.22% # Class of committed instruction
system.cpu.commit.op_class_0::FloatMisc             5      0.00%     81.22% # Class of committed instruction
system.cpu.commit.op_class_0::FloatSqrt             0      0.00%     81.22% # Class of committed instruction
system.cpu.commit.op_class_0::SimdAdd              49      0.00%     81.22% # Class of committed instruction
system.cpu.commit.op_class_0::SimdAddAcc            0      0.00%     81.22% # Class of committed instruction
system.cpu.commit.op_class_0::SimdAlu              68      0.00%     81.22% # Class of committed instruction
system.cpu.commit.op_class_0::SimdCmp              73      0.00%     81.22% # Class of committed instruction
system.cpu.commit.op_class_0::SimdCvt               0      0.00%     81.22% # Class of committed instruction
system.cpu.commit.op_class_0::SimdMisc             65      0.00%     81.22% # Class of committed instruction
system.cpu.commit.op_class_0::SimdMult              0      0.00%     81.22% # Class of committed instruction
system.cpu.commit.op_class_0::SimdMultAcc            0      0.00%     81.22% # Class of committed instruction
system.cpu.commit.op_class_0::SimdShift             0      0.00%     81.22% # Class of committed instruction
system.cpu.commit.op_class_0::SimdShiftAcc            0      0.00%     81.22% # Class of committed instruction
system.cpu.commit.op_class_0::SimdDiv               0      0.00%     81.22% # Class of committed instruction
system.cpu.commit.op_class_0::SimdSqrt              0      0.00%     81.22% # Class of committed instruction
system.cpu.commit.op_class_0::SimdFloatAdd            0      0.00%     81.22% # Class of committed instruction
system.cpu.commit.op_class_0::SimdFloatAlu            0      0.00%     81.22% # Class of committed instruction
system.cpu.commit.op_class_0::SimdFloatCmp            0      0.00%     81.22% # Class of committed instruction
system.cpu.commit.op_class_0::SimdFloatCvt            0      0.00%     81.22% # Class of committed instruction
system.cpu.commit.op_class_0::SimdFloatDiv            0      0.00%     81.22% # Class of committed instruction
system.cpu.commit.op_class_0::SimdFloatMisc            0      0.00%     81.22% # Class of committed instruction
system.cpu.commit.op_class_0::SimdFloatMult            0      0.00%     81.22% # Class of committed instruction
system.cpu.commit.op_class_0::SimdFloatMultAcc            0      0.00%     81.22% # Class of committed instruction
system.cpu.commit.op_class_0::SimdFloatSqrt            0      0.00%     81.22% # Class of committed instruction
system.cpu.commit.op_class_0::SimdReduceAdd            0      0.00%     81.22% # Class of committed instruction
system.cpu.commit.op_class_0::SimdReduceAlu            0      0.00%     81.22% # Class of committed instruction
system.cpu.commit.op_class_0::SimdReduceCmp            0      0.00%     81.22% # Class of committed instruction
system.cpu.commit.op_class_0::SimdFloatReduceAdd            0      0.00%     81.22% # Class of committed instruction
system.cpu.commit.op_class_0::SimdFloatReduceCmp            0      0.00%     81.22% # Class of committed instruction
system.cpu.commit.op_class_0::SimdAes               0      0.00%     81.22% # Class of committed instruction
system.cpu.commit.op_class_0::SimdAesMix            0      0.00%     81.22% # Class of committed instruction
system.cpu.commit.op_class_0::SimdSha1Hash            0      0.00%     81.22% # Class of committed instruction
system.cpu.commit.op_class_0::SimdSha1Hash2            0      0.00%     81.22% # Class of committed instruction
system.cpu.commit.op_class_0::SimdSha256Hash            0      0.00%     81.22% # Class of committed instruction
system.cpu.commit.op_class_0::SimdSha256Hash2            0      0.00%     81.22% # Class of committed instruction
system.cpu.commit.op_class_0::SimdShaSigma2            0      0.00%     81.22% # Class of committed instruction
system.cpu.commit.op_class_0::SimdShaSigma3            0      0.00%     81.22% # Class of committed instruction
system.cpu.commit.op_class_0::SimdPredAlu            0      0.00%     81.22% # Class of committed instruction
system.cpu.commit.op_class_0::MemRead         2002676     10.25%     91.48% # Class of committed instruction
system.cpu.commit.op_class_0::MemWrite        1664106      8.52%    100.00% # Class of committed instruction
system.cpu.commit.op_class_0::FloatMemRead            0      0.00%    100.00% # Class of committed instruction
system.cpu.commit.op_class_0::FloatMemWrite            0      0.00%    100.00% # Class of committed instruction
system.cpu.commit.op_class_0::IprAccess             0      0.00%    100.00% # Class of committed instruction
system.cpu.commit.op_class_0::InstPrefetch            0      0.00%    100.00% # Class of committed instruction
system.cpu.commit.op_class_0::total          19529307                       # Class of committed instruction
system.cpu.commit.refs                        3666782                       # Number of memory references committed
system.cpu.commit.swp_count                         0                       # Number of s/w prefetches committed
system.cpu.commit.vec_insts                       960                       # Number of committed Vector instructions.
system.cpu.committedInsts                    17268907                       # Number of Instructions Simulated
system.cpu.committedOps                      19525806                       # Number of Ops (including micro ops) Simulated
system.cpu.cpi                               0.592826                       # CPI: Cycles Per Instruction
system.cpu.cpi_total                         0.592826                       # CPI: Total CPI of All Threads
system.cpu.decode.BlockedCycles                735714                       # Number of cycles decode is blocked
system.cpu.decode.BranchMispred                  1955                       # Number of times decode detected a branch misprediction
system.cpu.decode.BranchResolved              2120674                       # Number of times decode resolved a branch
system.cpu.decode.DecodedInsts               20618152                       # Number of instructions handled by decode
system.cpu.decode.IdleCycles                  4223969                       # Number of cycles decode is idle
system.cpu.decode.RunCycles                   5054875                       # Number of cycles decode is running
system.cpu.decode.SquashCycles                  27424                       # Number of cycles decode is squashing
system.cpu.decode.SquashedInsts                  8252                       # Number of squashed instructions handled by decode
system.cpu.decode.UnblockCycles                 62058                       # Number of cycles decode is unblocking
system.cpu.dtb.accesses                             0                       # DTB accesses
system.cpu.dtb.align_faults                         0                       # Number of TLB faults due to alignment restrictions
system.cpu.dtb.domain_faults                        0                       # Number of TLB faults due to domain restrictions
system.cpu.dtb.flush_entries                        0                       # Number of entries that have been flushed from TLB
system.cpu.dtb.flush_tlb                            0                       # Number of times complete TLB was flushed
system.cpu.dtb.flush_tlb_asid                       0                       # Number of times TLB was flushed by ASID
system.cpu.dtb.flush_tlb_mva                        0                       # Number of times TLB was flushed by MVA
system.cpu.dtb.flush_tlb_mva_asid                   0                       # Number of times TLB was flushed by MVA & ASID
system.cpu.dtb.hits                                 0                       # DTB hits
system.cpu.dtb.inst_accesses                        0                       # ITB inst accesses
system.cpu.dtb.inst_hits                            0                       # ITB inst hits
system.cpu.dtb.inst_misses                          0                       # ITB inst misses
system.cpu.dtb.misses                               0                       # DTB misses
system.cpu.dtb.perms_faults                         0                       # Number of TLB faults due to permissions restrictions
system.cpu.dtb.prefetch_faults                      0                       # Number of TLB faults due to prefetch
system.cpu.dtb.read_accesses                        0                       # DTB read accesses
system.cpu.dtb.read_hits                            0                       # DTB read hits
system.cpu.dtb.read_misses                          0                       # DTB read misses
system.cpu.dtb.stage2_mmu.stage2_tlb.accesses            0                       # DTB accesses
system.cpu.dtb.stage2_mmu.stage2_tlb.align_faults            0                       # Number of TLB faults due to alignment restrictions
system.cpu.dtb.stage2_mmu.stage2_tlb.domain_faults            0                       # Number of TLB faults due to domain restrictions
system.cpu.dtb.stage2_mmu.stage2_tlb.flush_entries            0                       # Number of entries that have been flushed from TLB
system.cpu.dtb.stage2_mmu.stage2_tlb.flush_tlb            0                       # Number of times complete TLB was flushed
system.cpu.dtb.stage2_mmu.stage2_tlb.flush_tlb_asid            0                       # Number of times TLB was flushed by ASID
system.cpu.dtb.stage2_mmu.stage2_tlb.flush_tlb_mva            0                       # Number of times TLB was flushed by MVA
system.cpu.dtb.stage2_mmu.stage2_tlb.flush_tlb_mva_asid            0                       # Number of times TLB was flushed by MVA & ASID
system.cpu.dtb.stage2_mmu.stage2_tlb.hits            0                       # DTB hits
system.cpu.dtb.stage2_mmu.stage2_tlb.inst_accesses            0                       # ITB inst accesses
system.cpu.dtb.stage2_mmu.stage2_tlb.inst_hits            0                       # ITB inst hits
system.cpu.dtb.stage2_mmu.stage2_tlb.inst_misses            0                       # ITB inst misses
system.cpu.dtb.stage2_mmu.stage2_tlb.misses            0                       # DTB misses
system.cpu.dtb.stage2_mmu.stage2_tlb.perms_faults            0                       # Number of TLB faults due to permissions restrictions
system.cpu.dtb.stage2_mmu.stage2_tlb.prefetch_faults            0                       # Number of TLB faults due to prefetch
system.cpu.dtb.stage2_mmu.stage2_tlb.read_accesses            0                       # DTB read accesses
system.cpu.dtb.stage2_mmu.stage2_tlb.read_hits            0                       # DTB read hits
system.cpu.dtb.stage2_mmu.stage2_tlb.read_misses            0                       # DTB read misses
system.cpu.dtb.stage2_mmu.stage2_tlb.walker.walkRequestOrigin_Requested::Data            0                       # Table walker requests started/completed, data/inst
system.cpu.dtb.stage2_mmu.stage2_tlb.walker.walkRequestOrigin_Requested::Inst            0                       # Table walker requests started/completed, data/inst
system.cpu.dtb.stage2_mmu.stage2_tlb.walker.walkRequestOrigin_Requested::total            0                       # Table walker requests started/completed, data/inst
system.cpu.dtb.stage2_mmu.stage2_tlb.walker.walkRequestOrigin_Completed::Data            0                       # Table walker requests started/completed, data/inst
system.cpu.dtb.stage2_mmu.stage2_tlb.walker.walkRequestOrigin_Completed::Inst            0                       # Table walker requests started/completed, data/inst
system.cpu.dtb.stage2_mmu.stage2_tlb.walker.walkRequestOrigin_Completed::total            0                       # Table walker requests started/completed, data/inst
system.cpu.dtb.stage2_mmu.stage2_tlb.walker.walkRequestOrigin::total            0                       # Table walker requests started/completed, data/inst
system.cpu.dtb.stage2_mmu.stage2_tlb.walker.walks            0                       # Table walker walks requested
system.cpu.dtb.stage2_mmu.stage2_tlb.write_accesses            0                       # DTB write accesses
system.cpu.dtb.stage2_mmu.stage2_tlb.write_hits            0                       # DTB write hits
system.cpu.dtb.stage2_mmu.stage2_tlb.write_misses            0                       # DTB write misses
system.cpu.dtb.walker.walkRequestOrigin_Requested::Data            0                       # Table walker requests started/completed, data/inst
system.cpu.dtb.walker.walkRequestOrigin_Requested::Inst            0                       # Table walker requests started/completed, data/inst
system.cpu.dtb.walker.walkRequestOrigin_Requested::total            0                       # Table walker requests started/completed, data/inst
system.cpu.dtb.walker.walkRequestOrigin_Completed::Data            0                       # Table walker requests started/completed, data/inst
system.cpu.dtb.walker.walkRequestOrigin_Completed::Inst            0                       # Table walker requests started/completed, data/inst
system.cpu.dtb.walker.walkRequestOrigin_Completed::total            0                       # Table walker requests started/completed, data/inst
system.cpu.dtb.walker.walkRequestOrigin::total            0                       # Table walker requests started/completed, data/inst
system.cpu.dtb.walker.walks                         0                       # Table walker walks requested
system.cpu.dtb.write_accesses                       0                       # DTB write accesses
system.cpu.dtb.write_hits                           0                       # DTB write hits
system.cpu.dtb.write_misses                         0                       # DTB write misses
system.cpu.fetch.Branches                     5001926                       # Number of branches that fetch encountered
system.cpu.fetch.CacheLines                   4298383                       # Number of cache lines fetched
system.cpu.fetch.Cycles                       5712922                       # Number of cycles fetch has run and was not squashing or blocked
system.cpu.fetch.IcacheSquashes                  9247                       # Number of outstanding Icache misses that were squashed
system.cpu.fetch.IcacheWaitRetryStallCycles           78                       # Number of stall cycles due to full MSHR
system.cpu.fetch.Insts                       18306280                       # Number of instructions fetch has processed
system.cpu.fetch.MiscStallCycles                  232                       # Number of cycles fetch has spent waiting on interrupts, or bad addresses, or out of MSHRs
system.cpu.fetch.SquashCycles                   58718                       # Number of cycles fetch has spent squashing
system.cpu.fetch.branchRate                  0.488591                       # Number of branch fetches per cycle
system.cpu.fetch.icacheStallCycles            4361449                       # Number of cycles fetch is stalled on an Icache miss
system.cpu.fetch.predictedBranches            2977526                       # Number of branches that fetch has predicted taken
system.cpu.fetch.rate                        1.788167                       # Number of inst fetches per cycle
system.cpu.fetch.rateDist::samples           10104040                       # Number of instructions fetched each cycle (Total)
system.cpu.fetch.rateDist::mean              2.052020                       # Number of instructions fetched each cycle (Total)
system.cpu.fetch.rateDist::stdev             2.636226                       # Number of instructions fetched each cycle (Total)
system.cpu.fetch.rateDist::underflows               0      0.00%      0.00% # Number of instructions fetched each cycle (Total)
system.cpu.fetch.rateDist::0                  4891340     48.41%     48.41% # Number of instructions fetched each cycle (Total)
system.cpu.fetch.rateDist::1                   584737      5.79%     54.20% # Number of instructions fetched each cycle (Total)
system.cpu.fetch.rateDist::2                  1462955     14.48%     68.68% # Number of instructions fetched each cycle (Total)
system.cpu.fetch.rateDist::3                   837661      8.29%     76.97% # Number of instructions fetched each cycle (Total)
system.cpu.fetch.rateDist::4                   539228      5.34%     82.30% # Number of instructions fetched each cycle (Total)
system.cpu.fetch.rateDist::5                   215336      2.13%     84.43% # Number of instructions fetched each cycle (Total)
system.cpu.fetch.rateDist::6                   354053      3.50%     87.94% # Number of instructions fetched each cycle (Total)
system.cpu.fetch.rateDist::7                   397689      3.94%     91.87% # Number of instructions fetched each cycle (Total)
system.cpu.fetch.rateDist::8                   821041      8.13%    100.00% # Number of instructions fetched each cycle (Total)
system.cpu.fetch.rateDist::overflows                0      0.00%    100.00% # Number of instructions fetched each cycle (Total)
system.cpu.fetch.rateDist::min_value                0                       # Number of instructions fetched each cycle (Total)
system.cpu.fetch.rateDist::max_value                8                       # Number of instructions fetched each cycle (Total)
system.cpu.fetch.rateDist::total             10104040                       # Number of instructions fetched each cycle (Total)
system.cpu.idleCycles                          133414                       # Total number of cycles that the CPU has spent unscheduled due to idling
system.cpu.iew.branchMispredicts                33528                       # Number of branch mispredicts detected at execute
system.cpu.iew.exec_branches                  4891182                       # Number of branches executed
system.cpu.iew.exec_nop                          3880                       # number of nop insts executed
system.cpu.iew.exec_rate                     1.990504                       # Inst execution rate
system.cpu.iew.exec_refs                      3983015                       # number of memory reference insts executed
system.cpu.iew.exec_stores                    1745543                       # Number of stores executed
system.cpu.iew.exec_swp                             0                       # number of swp insts executed
system.cpu.iew.iewBlockCycles                  299319                       # Number of cycles IEW is blocking
system.cpu.iew.iewDispLoadInsts               2096613                       # Number of dispatched load instructions
system.cpu.iew.iewDispNonSpecInsts               1298                       # Number of dispatched non-speculative instructions
system.cpu.iew.iewDispSquashedInsts              1054                       # Number of squashed instructions skipped by dispatch
system.cpu.iew.iewDispStoreInsts              1773960                       # Number of dispatched store instructions
system.cpu.iew.iewDispatchedInsts            20377627                       # Number of instructions dispatched to IQ
system.cpu.iew.iewExecLoadInsts               2237472                       # Number of load instructions executed
system.cpu.iew.iewExecSquashedInsts             41340                       # Number of squashed instructions skipped in execute
system.cpu.iew.iewExecutedInsts              20377690                       # Number of executed instructions
system.cpu.iew.iewIQFullEvents                   1366                       # Number of times the IQ has become full, causing a stall
system.cpu.iew.iewIdleCycles                        0                       # Number of cycles IEW is idle
system.cpu.iew.iewLSQFullEvents                  2653                       # Number of times the LSQ has become full, causing a stall
system.cpu.iew.iewSquashCycles                  27424                       # Number of cycles IEW is squashing
system.cpu.iew.iewUnblockCycles                  6638                       # Number of cycles IEW is unblocking
system.cpu.iew.lsq.thread0.blockedLoads             0                       # Number of blocked loads due to partial load-store forwarding
system.cpu.iew.lsq.thread0.cacheBlocked           272                       # Number of times an access to memory failed due to the cache being blocked
system.cpu.iew.lsq.thread0.forwLoads            11874                       # Number of loads that had data forwarded from stores
system.cpu.iew.lsq.thread0.ignoredResponses           25                       # Number of memory responses ignored because the instruction is squashed
system.cpu.iew.lsq.thread0.invAddrLoads             0                       # Number of loads ignored due to an invalid address
system.cpu.iew.lsq.thread0.invAddrSwpfs             0                       # Number of software prefetches ignored due to an invalid address
system.cpu.iew.lsq.thread0.memOrderViolation           92                       # Number of memory ordering violations
system.cpu.iew.lsq.thread0.rescheduledLoads       155966                       # Number of loads that were rescheduled
system.cpu.iew.lsq.thread0.squashedLoads        93937                       # Number of loads squashed
system.cpu.iew.lsq.thread0.squashedStores       109854                       # Number of stores squashed
system.cpu.iew.memOrderViolationEvents             92                       # Number of memory order violations
system.cpu.iew.predictedNotTakenIncorrect        19886                       # Number of branches that were predicted not taken incorrectly
system.cpu.iew.predictedTakenIncorrect          13642                       # Number of branches that were predicted taken incorrectly
system.cpu.iew.wb_consumers                  18644833                       # num instructions consuming a value
system.cpu.iew.wb_count                      20195320                       # cumulative count of insts written-back
system.cpu.iew.wb_fanout                     0.502888                       # average fanout of values written-back
system.cpu.iew.wb_producers                   9376260                       # num instructions producing a value
system.cpu.iew.wb_rate                       1.972690                       # insts written-back per cycle
system.cpu.iew.wb_sent                       20203165                       # cumulative count of insts sent to commit
system.cpu.int_regfile_reads                 22996822                       # number of integer regfile reads
system.cpu.int_regfile_writes                14943770                       # number of integer regfile writes
system.cpu.ipc                               1.686836                       # IPC: Instructions Per Cycle
system.cpu.ipc_total                         1.686836                       # IPC: Total IPC of All Threads
system.cpu.iq.FU_type_0::No_OpClass                23      0.00%      0.00% # Type of FU issued
system.cpu.iq.FU_type_0::IntAlu              16382787     80.23%     80.23% # Type of FU issued
system.cpu.iq.FU_type_0::IntMult                40164      0.20%     80.43% # Type of FU issued
system.cpu.iq.FU_type_0::IntDiv                    26      0.00%     80.43% # Type of FU issued
system.cpu.iq.FU_type_0::FloatAdd                   0      0.00%     80.43% # Type of FU issued
system.cpu.iq.FU_type_0::FloatCmp                   0      0.00%     80.43% # Type of FU issued
system.cpu.iq.FU_type_0::FloatCvt                   0      0.00%     80.43% # Type of FU issued
system.cpu.iq.FU_type_0::FloatMult                  0      0.00%     80.43% # Type of FU issued
system.cpu.iq.FU_type_0::FloatMultAcc               0      0.00%     80.43% # Type of FU issued
system.cpu.iq.FU_type_0::FloatDiv                   0      0.00%     80.43% # Type of FU issued
system.cpu.iq.FU_type_0::FloatMisc                  5      0.00%     80.43% # Type of FU issued
system.cpu.iq.FU_type_0::FloatSqrt                  0      0.00%     80.43% # Type of FU issued
system.cpu.iq.FU_type_0::SimdAdd                   68      0.00%     80.43% # Type of FU issued
system.cpu.iq.FU_type_0::SimdAddAcc                 0      0.00%     80.43% # Type of FU issued
system.cpu.iq.FU_type_0::SimdAlu                   97      0.00%     80.43% # Type of FU issued
system.cpu.iq.FU_type_0::SimdCmp                   97      0.00%     80.43% # Type of FU issued
system.cpu.iq.FU_type_0::SimdCvt                    0      0.00%     80.43% # Type of FU issued
system.cpu.iq.FU_type_0::SimdMisc                  81      0.00%     80.43% # Type of FU issued
system.cpu.iq.FU_type_0::SimdMult                   0      0.00%     80.43% # Type of FU issued
system.cpu.iq.FU_type_0::SimdMultAcc                0      0.00%     80.43% # Type of FU issued
system.cpu.iq.FU_type_0::SimdShift                  0      0.00%     80.43% # Type of FU issued
system.cpu.iq.FU_type_0::SimdShiftAcc               0      0.00%     80.43% # Type of FU issued
system.cpu.iq.FU_type_0::SimdDiv                    0      0.00%     80.43% # Type of FU issued
system.cpu.iq.FU_type_0::SimdSqrt                   0      0.00%     80.43% # Type of FU issued
system.cpu.iq.FU_type_0::SimdFloatAdd               0      0.00%     80.43% # Type of FU issued
system.cpu.iq.FU_type_0::SimdFloatAlu               0      0.00%     80.43% # Type of FU issued
system.cpu.iq.FU_type_0::SimdFloatCmp               0      0.00%     80.43% # Type of FU issued
system.cpu.iq.FU_type_0::SimdFloatCvt               0      0.00%     80.43% # Type of FU issued
system.cpu.iq.FU_type_0::SimdFloatDiv               0      0.00%     80.43% # Type of FU issued
system.cpu.iq.FU_type_0::SimdFloatMisc              0      0.00%     80.43% # Type of FU issued
system.cpu.iq.FU_type_0::SimdFloatMult              0      0.00%     80.43% # Type of FU issued
system.cpu.iq.FU_type_0::SimdFloatMultAcc            0      0.00%     80.43% # Type of FU issued
system.cpu.iq.FU_type_0::SimdFloatSqrt              0      0.00%     80.43% # Type of FU issued
system.cpu.iq.FU_type_0::SimdReduceAdd              0      0.00%     80.43% # Type of FU issued
system.cpu.iq.FU_type_0::SimdReduceAlu              0      0.00%     80.43% # Type of FU issued
system.cpu.iq.FU_type_0::SimdReduceCmp              0      0.00%     80.43% # Type of FU issued
system.cpu.iq.FU_type_0::SimdFloatReduceAdd            0      0.00%     80.43% # Type of FU issued
system.cpu.iq.FU_type_0::SimdFloatReduceCmp            0      0.00%     80.43% # Type of FU issued
system.cpu.iq.FU_type_0::SimdAes                    0      0.00%     80.43% # Type of FU issued
system.cpu.iq.FU_type_0::SimdAesMix                 0      0.00%     80.43% # Type of FU issued
system.cpu.iq.FU_type_0::SimdSha1Hash               0      0.00%     80.43% # Type of FU issued
system.cpu.iq.FU_type_0::SimdSha1Hash2              0      0.00%     80.43% # Type of FU issued
system.cpu.iq.FU_type_0::SimdSha256Hash             0      0.00%     80.43% # Type of FU issued
system.cpu.iq.FU_type_0::SimdSha256Hash2            0      0.00%     80.43% # Type of FU issued
system.cpu.iq.FU_type_0::SimdShaSigma2              0      0.00%     80.43% # Type of FU issued
system.cpu.iq.FU_type_0::SimdShaSigma3              0      0.00%     80.43% # Type of FU issued
system.cpu.iq.FU_type_0::SimdPredAlu                0      0.00%     80.43% # Type of FU issued
system.cpu.iq.FU_type_0::MemRead              2242559     10.98%     91.41% # Type of FU issued
system.cpu.iq.FU_type_0::MemWrite             1753123      8.59%    100.00% # Type of FU issued
system.cpu.iq.FU_type_0::FloatMemRead               0      0.00%    100.00% # Type of FU issued
system.cpu.iq.FU_type_0::FloatMemWrite              0      0.00%    100.00% # Type of FU issued
system.cpu.iq.FU_type_0::IprAccess                  0      0.00%    100.00% # Type of FU issued
system.cpu.iq.FU_type_0::InstPrefetch               0      0.00%    100.00% # Type of FU issued
system.cpu.iq.FU_type_0::total               20419030                       # Type of FU issued
system.cpu.iq.fp_alu_accesses                       0                       # Number of floating point alu accesses
system.cpu.iq.fp_inst_queue_reads                   0                       # Number of floating instruction queue reads
system.cpu.iq.fp_inst_queue_wakeup_accesses            0                       # Number of floating instruction queue wakeup accesses
system.cpu.iq.fp_inst_queue_writes                  0                       # Number of floating instruction queue writes
system.cpu.iq.fu_busy_cnt                       66518                       # FU busy when requested
system.cpu.iq.fu_busy_rate                   0.003258                       # FU busy rate (busy events/executed inst)
system.cpu.iq.fu_full::No_OpClass                   0      0.00%      0.00% # attempts to use FU when none available
system.cpu.iq.fu_full::IntAlu                   49306     74.12%     74.12% # attempts to use FU when none available
system.cpu.iq.fu_full::IntMult                      0      0.00%     74.12% # attempts to use FU when none available
system.cpu.iq.fu_full::IntDiv                       0      0.00%     74.12% # attempts to use FU when none available
system.cpu.iq.fu_full::FloatAdd                     0      0.00%     74.12% # attempts to use FU when none available
system.cpu.iq.fu_full::FloatCmp                     0      0.00%     74.12% # attempts to use FU when none available
system.cpu.iq.fu_full::FloatCvt                     0      0.00%     74.12% # attempts to use FU when none available
system.cpu.iq.fu_full::FloatMult                    0      0.00%     74.12% # attempts to use FU when none available
system.cpu.iq.fu_full::FloatMultAcc                 0      0.00%     74.12% # attempts to use FU when none available
system.cpu.iq.fu_full::FloatDiv                     0      0.00%     74.12% # attempts to use FU when none available
system.cpu.iq.fu_full::FloatMisc                    0      0.00%     74.12% # attempts to use FU when none available
system.cpu.iq.fu_full::FloatSqrt                    0      0.00%     74.12% # attempts to use FU when none available
system.cpu.iq.fu_full::SimdAdd                      0      0.00%     74.12% # attempts to use FU when none available
system.cpu.iq.fu_full::SimdAddAcc                   0      0.00%     74.12% # attempts to use FU when none available
system.cpu.iq.fu_full::SimdAlu                      3      0.00%     74.13% # attempts to use FU when none available
system.cpu.iq.fu_full::SimdCmp                      8      0.01%     74.14% # attempts to use FU when none available
system.cpu.iq.fu_full::SimdCvt                      0      0.00%     74.14% # attempts to use FU when none available
system.cpu.iq.fu_full::SimdMisc                     0      0.00%     74.14% # attempts to use FU when none available
system.cpu.iq.fu_full::SimdMult                     0      0.00%     74.14% # attempts to use FU when none available
system.cpu.iq.fu_full::SimdMultAcc                  0      0.00%     74.14% # attempts to use FU when none available
system.cpu.iq.fu_full::SimdShift                    0      0.00%     74.14% # attempts to use FU when none available
system.cpu.iq.fu_full::SimdShiftAcc                 0      0.00%     74.14% # attempts to use FU when none available
system.cpu.iq.fu_full::SimdDiv                      0      0.00%     74.14% # attempts to use FU when none available
system.cpu.iq.fu_full::SimdSqrt                     0      0.00%     74.14% # attempts to use FU when none available
system.cpu.iq.fu_full::SimdFloatAdd                 0      0.00%     74.14% # attempts to use FU when none available
system.cpu.iq.fu_full::SimdFloatAlu                 0      0.00%     74.14% # attempts to use FU when none available
system.cpu.iq.fu_full::SimdFloatCmp                 0      0.00%     74.14% # attempts to use FU when none available
system.cpu.iq.fu_full::SimdFloatCvt                 0      0.00%     74.14% # attempts to use FU when none available
system.cpu.iq.fu_full::SimdFloatDiv                 0      0.00%     74.14% # attempts to use FU when none available
system.cpu.iq.fu_full::SimdFloatMisc                0      0.00%     74.14% # attempts to use FU when none available
system.cpu.iq.fu_full::SimdFloatMult                0      0.00%     74.14% # attempts to use FU when none available
system.cpu.iq.fu_full::SimdFloatMultAcc             0      0.00%     74.14% # attempts to use FU when none available
system.cpu.iq.fu_full::SimdFloatSqrt                0      0.00%     74.14% # attempts to use FU when none available
system.cpu.iq.fu_full::SimdReduceAdd                0      0.00%     74.14% # attempts to use FU when none available
system.cpu.iq.fu_full::SimdReduceAlu                0      0.00%     74.14% # attempts to use FU when none available
system.cpu.iq.fu_full::SimdReduceCmp                0      0.00%     74.14% # attempts to use FU when none available
system.cpu.iq.fu_full::SimdFloatReduceAdd            0      0.00%     74.14% # attempts to use FU when none available
system.cpu.iq.fu_full::SimdFloatReduceCmp            0      0.00%     74.14% # attempts to use FU when none available
system.cpu.iq.fu_full::SimdAes                      0      0.00%     74.14% # attempts to use FU when none available
system.cpu.iq.fu_full::SimdAesMix                   0      0.00%     74.14% # attempts to use FU when none available
system.cpu.iq.fu_full::SimdSha1Hash                 0      0.00%     74.14% # attempts to use FU when none available
system.cpu.iq.fu_full::SimdSha1Hash2                0      0.00%     74.14% # attempts to use FU when none available
system.cpu.iq.fu_full::SimdSha256Hash               0      0.00%     74.14% # attempts to use FU when none available
system.cpu.iq.fu_full::SimdSha256Hash2              0      0.00%     74.14% # attempts to use FU when none available
system.cpu.iq.fu_full::SimdShaSigma2                0      0.00%     74.14% # attempts to use FU when none available
system.cpu.iq.fu_full::SimdShaSigma3                0      0.00%     74.14% # attempts to use FU when none available
system.cpu.iq.fu_full::SimdPredAlu                  0      0.00%     74.14% # attempts to use FU when none available
system.cpu.iq.fu_full::MemRead                   2479      3.73%     77.87% # attempts to use FU when none available
system.cpu.iq.fu_full::MemWrite                 14722     22.13%    100.00% # attempts to use FU when none available
system.cpu.iq.fu_full::FloatMemRead                 0      0.00%    100.00% # attempts to use FU when none available
system.cpu.iq.fu_full::FloatMemWrite                0      0.00%    100.00% # attempts to use FU when none available
system.cpu.iq.fu_full::IprAccess                    0      0.00%    100.00% # attempts to use FU when none available
system.cpu.iq.fu_full::InstPrefetch                 0      0.00%    100.00% # attempts to use FU when none available
system.cpu.iq.int_alu_accesses               20484311                       # Number of integer alu accesses
system.cpu.iq.int_inst_queue_reads           51006968                       # Number of integer instruction queue reads
system.cpu.iq.int_inst_queue_wakeup_accesses     20194215                       # Number of integer instruction queue wakeup accesses
system.cpu.iq.int_inst_queue_writes          21220201                       # Number of integer instruction queue writes
system.cpu.iq.iqInstsAdded                   20372449                       # Number of instructions added to the IQ (excludes non-spec)
system.cpu.iq.iqInstsIssued                  20419030                       # Number of instructions issued
system.cpu.iq.iqNonSpecInstsAdded                1298                       # Number of non-speculative instructions added to the IQ
system.cpu.iq.iqSquashedInstsExamined          847940                       # Number of squashed instructions iterated over during squash; mainly for profiling
system.cpu.iq.iqSquashedInstsIssued               789                       # Number of squashed instructions issued
system.cpu.iq.iqSquashedNonSpecRemoved            189                       # Number of squashed non-spec instructions that were removed
system.cpu.iq.iqSquashedOperandsExamined       256211                       # Number of squashed operands that are examined and possibly removed from graph
system.cpu.iq.issued_per_cycle::samples      10104040                       # Number of insts issued each cycle
system.cpu.iq.issued_per_cycle::mean         2.020878                       # Number of insts issued each cycle
system.cpu.iq.issued_per_cycle::stdev        1.801197                       # Number of insts issued each cycle
system.cpu.iq.issued_per_cycle::underflows            0      0.00%      0.00% # Number of insts issued each cycle
system.cpu.iq.issued_per_cycle::0             2133962     21.12%     21.12% # Number of insts issued each cycle
system.cpu.iq.issued_per_cycle::1             2520713     24.95%     46.07% # Number of insts issued each cycle
system.cpu.iq.issued_per_cycle::2             2297169     22.74%     68.80% # Number of insts issued each cycle
system.cpu.iq.issued_per_cycle::3             1383904     13.70%     82.50% # Number of insts issued each cycle
system.cpu.iq.issued_per_cycle::4              618746      6.12%     88.62% # Number of insts issued each cycle
system.cpu.iq.issued_per_cycle::5              607751      6.01%     94.64% # Number of insts issued each cycle
system.cpu.iq.issued_per_cycle::6              274677      2.72%     97.36% # Number of insts issued each cycle
system.cpu.iq.issued_per_cycle::7              146478      1.45%     98.81% # Number of insts issued each cycle
system.cpu.iq.issued_per_cycle::8              120640      1.19%    100.00% # Number of insts issued each cycle
system.cpu.iq.issued_per_cycle::overflows            0      0.00%    100.00% # Number of insts issued each cycle
system.cpu.iq.issued_per_cycle::min_value            0                       # Number of insts issued each cycle
system.cpu.iq.issued_per_cycle::max_value            8                       # Number of insts issued each cycle
system.cpu.iq.issued_per_cycle::total        10104040                       # Number of insts issued each cycle
system.cpu.iq.rate                           1.994542                       # Inst issue rate
system.cpu.iq.vec_alu_accesses                   1214                       # Number of vector alu accesses
system.cpu.iq.vec_inst_queue_reads               2439                       # Number of vector instruction queue reads
system.cpu.iq.vec_inst_queue_wakeup_accesses         1105                       # Number of vector instruction queue wakeup accesses
system.cpu.iq.vec_inst_queue_writes              1578                       # Number of vector instruction queue writes
system.cpu.itb.accesses                             0                       # DTB accesses
system.cpu.itb.align_faults                         0                       # Number of TLB faults due to alignment restrictions
system.cpu.itb.domain_faults                        0                       # Number of TLB faults due to domain restrictions
system.cpu.itb.flush_entries                        0                       # Number of entries that have been flushed from TLB
system.cpu.itb.flush_tlb                            0                       # Number of times complete TLB was flushed
system.cpu.itb.flush_tlb_asid                       0                       # Number of times TLB was flushed by ASID
system.cpu.itb.flush_tlb_mva                        0                       # Number of times TLB was flushed by MVA
system.cpu.itb.flush_tlb_mva_asid                   0                       # Number of times TLB was flushed by MVA & ASID
system.cpu.itb.hits                                 0                       # DTB hits
system.cpu.itb.inst_accesses                        0                       # ITB inst accesses
system.cpu.itb.inst_hits                            0                       # ITB inst hits
system.cpu.itb.inst_misses                          0                       # ITB inst misses
system.cpu.itb.misses                               0                       # DTB misses
system.cpu.itb.perms_faults                         0                       # Number of TLB faults due to permissions restrictions
system.cpu.itb.prefetch_faults                      0                       # Number of TLB faults due to prefetch
system.cpu.itb.read_accesses                        0                       # DTB read accesses
system.cpu.itb.read_hits                            0                       # DTB read hits
system.cpu.itb.read_misses                          0                       # DTB read misses
system.cpu.itb.stage2_mmu.stage2_tlb.accesses            0                       # DTB accesses
system.cpu.itb.stage2_mmu.stage2_tlb.align_faults            0                       # Number of TLB faults due to alignment restrictions
system.cpu.itb.stage2_mmu.stage2_tlb.domain_faults            0                       # Number of TLB faults due to domain restrictions
system.cpu.itb.stage2_mmu.stage2_tlb.flush_entries            0                       # Number of entries that have been flushed from TLB
system.cpu.itb.stage2_mmu.stage2_tlb.flush_tlb            0                       # Number of times complete TLB was flushed
system.cpu.itb.stage2_mmu.stage2_tlb.flush_tlb_asid            0                       # Number of times TLB was flushed by ASID
system.cpu.itb.stage2_mmu.stage2_tlb.flush_tlb_mva            0                       # Number of times TLB was flushed by MVA
system.cpu.itb.stage2_mmu.stage2_tlb.flush_tlb_mva_asid            0                       # Number of times TLB was flushed by MVA & ASID
system.cpu.itb.stage2_mmu.stage2_tlb.hits            0                       # DTB hits
system.cpu.itb.stage2_mmu.stage2_tlb.inst_accesses            0                       # ITB inst accesses
system.cpu.itb.stage2_mmu.stage2_tlb.inst_hits            0                       # ITB inst hits
system.cpu.itb.stage2_mmu.stage2_tlb.inst_misses            0                       # ITB inst misses
system.cpu.itb.stage2_mmu.stage2_tlb.misses            0                       # DTB misses
system.cpu.itb.stage2_mmu.stage2_tlb.perms_faults            0                       # Number of TLB faults due to permissions restrictions
system.cpu.itb.stage2_mmu.stage2_tlb.prefetch_faults            0                       # Number of TLB faults due to prefetch
system.cpu.itb.stage2_mmu.stage2_tlb.read_accesses            0                       # DTB read accesses
system.cpu.itb.stage2_mmu.stage2_tlb.read_hits            0                       # DTB read hits
system.cpu.itb.stage2_mmu.stage2_tlb.read_misses            0                       # DTB read misses
system.cpu.itb.stage2_mmu.stage2_tlb.walker.walkRequestOrigin_Requested::Data            0                       # Table walker requests started/completed, data/inst
system.cpu.itb.stage2_mmu.stage2_tlb.walker.walkRequestOrigin_Requested::Inst            0                       # Table walker requests started/completed, data/inst
system.cpu.itb.stage2_mmu.stage2_tlb.walker.walkRequestOrigin_Requested::total            0                       # Table walker requests started/completed, data/inst
system.cpu.itb.stage2_mmu.stage2_tlb.walker.walkRequestOrigin_Completed::Data            0                       # Table walker requests started/completed, data/inst
system.cpu.itb.stage2_mmu.stage2_tlb.walker.walkRequestOrigin_Completed::Inst            0                       # Table walker requests started/completed, data/inst
system.cpu.itb.stage2_mmu.stage2_tlb.walker.walkRequestOrigin_Completed::total            0                       # Table walker requests started/completed, data/inst
system.cpu.itb.stage2_mmu.stage2_tlb.walker.walkRequestOrigin::total            0                       # Table walker requests started/completed, data/inst
system.cpu.itb.stage2_mmu.stage2_tlb.walker.walks            0                       # Table walker walks requested
system.cpu.itb.stage2_mmu.stage2_tlb.write_accesses            0                       # DTB write accesses
system.cpu.itb.stage2_mmu.stage2_tlb.write_hits            0                       # DTB write hits
system.cpu.itb.stage2_mmu.stage2_tlb.write_misses            0                       # DTB write misses
system.cpu.itb.walker.walkRequestOrigin_Requested::Data            0                       # Table walker requests started/completed, data/inst
system.cpu.itb.walker.walkRequestOrigin_Requested::Inst            0                       # Table walker requests started/completed, data/inst
system.cpu.itb.walker.walkRequestOrigin_Requested::total            0                       # Table walker requests started/completed, data/inst
system.cpu.itb.walker.walkRequestOrigin_Completed::Data            0                       # Table walker requests started/completed, data/inst
system.cpu.itb.walker.walkRequestOrigin_Completed::Inst            0                       # Table walker requests started/completed, data/inst
system.cpu.itb.walker.walkRequestOrigin_Completed::total            0                       # Table walker requests started/completed, data/inst
system.cpu.itb.walker.walkRequestOrigin::total            0                       # Table walker requests started/completed, data/inst
system.cpu.itb.walker.walks                         0                       # Table walker walks requested
system.cpu.itb.write_accesses                       0                       # DTB write accesses
system.cpu.itb.write_hits                           0                       # DTB write hits
system.cpu.itb.write_misses                         0                       # DTB write misses
system.cpu.memDep0.conflictingLoads             39039                       # Number of conflicting loads.
system.cpu.memDep0.conflictingStores            77429                       # Number of conflicting stores.
system.cpu.memDep0.insertedLoads              2096613                       # Number of loads inserted to the mem dependence unit.
system.cpu.memDep0.insertedStores             1773960                       # Number of stores inserted to the mem dependence unit.
system.cpu.misc_regfile_reads                14172211                       # number of misc regfile reads
system.cpu.misc_regfile_writes                   4389                       # number of misc regfile writes
system.cpu.numCycles                         10237454                       # number of cpu cycles simulated
system.cpu.numWorkItemsCompleted                    0                       # number of work items this cpu completed
system.cpu.numWorkItemsStarted                      0                       # number of work items this cpu started
system.cpu.rename.BlockCycles                  450927                       # Number of cycles rename is blocking
system.cpu.rename.CommittedMaps              21060090                       # Number of HB maps that are committed
system.cpu.rename.IQFullEvents                 117617                       # Number of times rename has blocked due to IQ full
system.cpu.rename.IdleCycles                  4256379                       # Number of cycles rename is idle
system.cpu.rename.LQFullEvents                   3703                       # Number of times rename has blocked due to LQ full
system.cpu.rename.ROBFullEvents                  5159                       # Number of times rename has blocked due to ROB full
system.cpu.rename.RenameLookups              32064108                       # Number of register rename lookups that rename has made
system.cpu.rename.RenamedInsts               20545683                       # Number of instructions processed by rename
system.cpu.rename.RenamedOperands            22027560                       # Number of destination operands rename has renamed
system.cpu.rename.RunCycles                   5076766                       # Number of cycles rename is running
system.cpu.rename.SQFullEvents                  18688                       # Number of times rename has blocked due to SQ full
system.cpu.rename.SquashCycles                  27424                       # Number of cycles rename is squashing
system.cpu.rename.UnblockCycles                160270                       # Number of cycles rename is unblocking
system.cpu.rename.UndoneMaps                   967470                       # Number of HB maps that are undone due to squashing
system.cpu.rename.int_rename_lookups         23257015                       # Number of integer rename lookups
system.cpu.rename.serializeStallCycles         132274                       # count of cycles rename stalled for serializing inst
system.cpu.rename.serializingInsts               4192                       # count of serializing insts renamed
system.cpu.rename.skidInsts                    237831                       # count of insts added to the skid buffer
system.cpu.rename.tempSerializingInsts           1306                       # count of temporary serializing insts renamed
system.cpu.rename.vec_rename_lookups             1489                       # Number of vector rename lookups
system.cpu.rob.rob_reads                     29608657                       # The number of ROB reads
system.cpu.rob.rob_writes                    40872381                       # The number of ROB writes
system.cpu.timesIdled                            1548                       # Number of times that the entire CPU went into an idle state and unscheduled itself
system.cpu.vec_regfile_reads                     1262                       # number of vector regfile reads
system.cpu.vec_regfile_writes                     415                       # number of vector regfile writes
system.cpu.workload.numSyscalls                    11                       # Number of system calls
system.membus.snoop_filter.hit_multi_requests            0                       # Number of requests hitting in the snoop filter with multiple (>1) holders of the requested data.
system.membus.snoop_filter.hit_multi_snoops            0                       # Number of snoops hitting in the snoop filter with multiple (>1) holders of the requested data.
system.membus.snoop_filter.hit_single_requests            0                       # Number of requests hitting in the snoop filter with a single holder of the requested data.
system.membus.snoop_filter.hit_single_snoops            0                       # Number of snoops hitting in the snoop filter with a single holder of the requested data.
system.membus.snoop_filter.tot_requests          8671                       # Total number of requests made to the snoop filter.
system.membus.snoop_filter.tot_snoops               0                       # Total number of snoops made to the snoop filter.
system.tol2bus.snoop_filter.hit_multi_requests            2                       # Number of requests hitting in the snoop filter with multiple (>1) holders of the requested data.
system.tol2bus.snoop_filter.hit_multi_snoops            0                       # Number of snoops hitting in the snoop filter with multiple (>1) holders of the requested data.
system.tol2bus.snoop_filter.hit_single_requests        47625                       # Number of requests hitting in the snoop filter with a single holder of the requested data.
system.tol2bus.snoop_filter.hit_single_snoops            0                       # Number of snoops hitting in the snoop filter with a single holder of the requested data.
system.tol2bus.snoop_filter.tot_requests        96274                       # Total number of requests made to the snoop filter.
system.tol2bus.snoop_filter.tot_snoops              0                       # Total number of snoops made to the snoop filter.
system.membus.trans_dist::ReadResp               6074                       # Transaction distribution
system.membus.trans_dist::ReadExReq              2446                       # Transaction distribution
system.membus.trans_dist::ReadExResp             2446                       # Transaction distribution
system.membus.trans_dist::ReadSharedReq          6074                       # Transaction distribution
system.membus.trans_dist::InvalidateReq           151                       # Transaction distribution
system.membus.pkt_count_system.l2.mem_side::system.mem_ctrls.port        17191                       # Packet count per connected master and slave (bytes)
system.membus.pkt_count::total                  17191                       # Packet count per connected master and slave (bytes)
system.membus.pkt_size_system.l2.mem_side::system.mem_ctrls.port       545280                       # Cumulative packet size per connected master and slave (bytes)
system.membus.pkt_size::total                  545280                       # Cumulative packet size per connected master and slave (bytes)
system.membus.snoops                                0                       # Total snoops (count)
system.membus.snoopTraffic                          0                       # Total snoop traffic (bytes)
system.membus.snoop_fanout::samples              8671                       # Request fanout histogram
system.membus.snoop_fanout::mean                    0                       # Request fanout histogram
system.membus.snoop_fanout::stdev                   0                       # Request fanout histogram
system.membus.snoop_fanout::underflows              0      0.00%      0.00% # Request fanout histogram
system.membus.snoop_fanout::0                    8671    100.00%    100.00% # Request fanout histogram
system.membus.snoop_fanout::1                       0      0.00%    100.00% # Request fanout histogram
system.membus.snoop_fanout::overflows               0      0.00%    100.00% # Request fanout histogram
system.membus.snoop_fanout::min_value               0                       # Request fanout histogram
system.membus.snoop_fanout::max_value               0                       # Request fanout histogram
system.membus.snoop_fanout::total                8671                       # Request fanout histogram
system.membus.reqLayer0.occupancy            10331000                       # Layer occupancy (ticks)
system.membus.reqLayer0.utilization               0.2                       # Layer utilization (%)
system.membus.respLayer1.occupancy           44986000                       # Layer occupancy (ticks)
system.membus.respLayer1.utilization              0.9                       # Layer utilization (%)
system.membus.power_state.pwrStateResidencyTicks::UNDEFINED   5118726500                       # Cumulative time (in ticks) in various power states
system.tol2bus.trans_dist::ReadResp             45005                       # Transaction distribution
system.tol2bus.trans_dist::WritebackDirty        12867                       # Transaction distribution
system.tol2bus.trans_dist::WritebackClean         1605                       # Transaction distribution
system.tol2bus.trans_dist::CleanEvict           33153                       # Transaction distribution
system.tol2bus.trans_dist::ReadExReq             3469                       # Transaction distribution
system.tol2bus.trans_dist::ReadExResp            3469                       # Transaction distribution
system.tol2bus.trans_dist::ReadCleanReq          2117                       # Transaction distribution
system.tol2bus.trans_dist::ReadSharedReq        42889                       # Transaction distribution
system.tol2bus.trans_dist::InvalidateReq          174                       # Transaction distribution
system.tol2bus.trans_dist::InvalidateResp          174                       # Transaction distribution
system.tol2bus.pkt_count_system.cpu.icache.mem_side::system.l2.cpu_side         5838                       # Packet count per connected master and slave (bytes)
system.tol2bus.pkt_count_system.cpu.dcache.mem_side::system.l2.cpu_side       139084                       # Packet count per connected master and slave (bytes)
system.tol2bus.pkt_count::total                144922                       # Packet count per connected master and slave (bytes)
system.tol2bus.pkt_size_system.cpu.icache.mem_side::system.l2.cpu_side       238144                       # Cumulative packet size per connected master and slave (bytes)
system.tol2bus.pkt_size_system.cpu.dcache.mem_side::system.l2.cpu_side      3790400                       # Cumulative packet size per connected master and slave (bytes)
system.tol2bus.pkt_size::total                4028544                       # Cumulative packet size per connected master and slave (bytes)
system.tol2bus.snoops                               0                       # Total snoops (count)
system.tol2bus.snoopTraffic                         0                       # Total snoop traffic (bytes)
system.tol2bus.snoop_fanout::samples            48649                       # Request fanout histogram
system.tol2bus.snoop_fanout::mean            0.000041                       # Request fanout histogram
system.tol2bus.snoop_fanout::stdev           0.006412                       # Request fanout histogram
system.tol2bus.snoop_fanout::underflows             0      0.00%      0.00% # Request fanout histogram
system.tol2bus.snoop_fanout::0                  48647    100.00%    100.00% # Request fanout histogram
system.tol2bus.snoop_fanout::1                      2      0.00%    100.00% # Request fanout histogram
system.tol2bus.snoop_fanout::2                      0      0.00%    100.00% # Request fanout histogram
system.tol2bus.snoop_fanout::overflows              0      0.00%    100.00% # Request fanout histogram
system.tol2bus.snoop_fanout::min_value              0                       # Request fanout histogram
system.tol2bus.snoop_fanout::max_value              1                       # Request fanout histogram
system.tol2bus.snoop_fanout::total              48649                       # Request fanout histogram
system.tol2bus.reqLayer0.occupancy           62609000                       # Layer occupancy (ticks)
system.tol2bus.reqLayer0.utilization              1.2                       # Layer utilization (%)
system.tol2bus.respLayer1.occupancy          69624499                       # Layer occupancy (ticks)
system.tol2bus.respLayer1.utilization             1.4                       # Layer utilization (%)
system.tol2bus.respLayer0.occupancy           3175996                       # Layer occupancy (ticks)
system.tol2bus.respLayer0.utilization             0.1                       # Layer utilization (%)
system.tol2bus.power_state.pwrStateResidencyTicks::UNDEFINED   5118726500                       # Cumulative time (in ticks) in various power states
system.voltage_domain.voltage                       1                       # Voltage in Volts
system.clk_domain.clock                          1000                       # Clock period in ticks
system.l2.demand_hits::.cpu.inst                  279                       # number of demand (read+write) hits
system.l2.demand_hits::.cpu.data                39675                       # number of demand (read+write) hits
system.l2.demand_hits::total                    39954                       # number of demand (read+write) hits
system.l2.overall_hits::.cpu.inst                 279                       # number of overall hits
system.l2.overall_hits::.cpu.data               39675                       # number of overall hits
system.l2.overall_hits::total                   39954                       # number of overall hits
system.l2.demand_misses::.cpu.inst               1838                       # number of demand (read+write) misses
system.l2.demand_misses::.cpu.data               6683                       # number of demand (read+write) misses
system.l2.demand_misses::total                   8521                       # number of demand (read+write) misses
system.l2.overall_misses::.cpu.inst              1838                       # number of overall misses
system.l2.overall_misses::.cpu.data              6683                       # number of overall misses
system.l2.overall_misses::total                  8521                       # number of overall misses
system.l2.demand_miss_latency::.cpu.inst    143569500                       # number of demand (read+write) miss cycles
system.l2.demand_miss_latency::.cpu.data    503474500                       # number of demand (read+write) miss cycles
system.l2.demand_miss_latency::total        647044000                       # number of demand (read+write) miss cycles
system.l2.overall_miss_latency::.cpu.inst    143569500                       # number of overall miss cycles
system.l2.overall_miss_latency::.cpu.data    503474500                       # number of overall miss cycles
system.l2.overall_miss_latency::total       647044000                       # number of overall miss cycles
system.l2.demand_accesses::.cpu.inst             2117                       # number of demand (read+write) accesses
system.l2.demand_accesses::.cpu.data            46358                       # number of demand (read+write) accesses
system.l2.demand_accesses::total                48475                       # number of demand (read+write) accesses
system.l2.overall_accesses::.cpu.inst            2117                       # number of overall (read+write) accesses
system.l2.overall_accesses::.cpu.data           46358                       # number of overall (read+write) accesses
system.l2.overall_accesses::total               48475                       # number of overall (read+write) accesses
system.l2.demand_miss_rate::.cpu.inst        0.868210                       # miss rate for demand accesses
system.l2.demand_miss_rate::.cpu.data        0.144161                       # miss rate for demand accesses
system.l2.demand_miss_rate::total            0.175781                       # miss rate for demand accesses
system.l2.overall_miss_rate::.cpu.inst       0.868210                       # miss rate for overall accesses
system.l2.overall_miss_rate::.cpu.data       0.144161                       # miss rate for overall accesses
[...]
system.cpu.dcache.overall_miss_latency::total   2397960288                       # number of overall miss cycles
system.cpu.dcache.demand_accesses::.cpu.data      3726926                       # number of demand (read+write) accesses
system.cpu.dcache.demand_accesses::total      3726926                       # number of demand (read+write) accesses
system.cpu.dcache.overall_accesses::.cpu.data      3726962                       # number of overall (read+write) accesses
system.cpu.dcache.overall_accesses::total      3726962                       # number of overall (read+write) accesses
system.cpu.dcache.demand_miss_rate::.cpu.data     0.022023                       # miss rate for demand accesses
system.cpu.dcache.demand_miss_rate::total     0.022023                       # miss rate for demand accesses
system.cpu.dcache.overall_miss_rate::.cpu.data     0.022024                       # miss rate for overall accesses
system.cpu.dcache.overall_miss_rate::total     0.022024                       # miss rate for overall accesses
system.cpu.dcache.demand_avg_miss_latency::.cpu.data 29215.627671                       # average overall miss latency
system.cpu.dcache.demand_avg_miss_latency::total 29215.627671                       # average overall miss latency
system.cpu.dcache.overall_avg_miss_latency::.cpu.data 29214.559862                       # average overall miss latency
system.cpu.dcache.overall_avg_miss_latency::total 29214.559862                       # average overall miss latency
system.cpu.dcache.blocked_cycles::no_mshrs         9647                       # number of cycles access was blocked
system.cpu.dcache.blocked_cycles::no_targets            0                       # number of cycles access was blocked
system.cpu.dcache.blocked::no_mshrs               318                       # number of cycles access was blocked
system.cpu.dcache.blocked::no_targets               0                       # number of cycles access was blocked
system.cpu.dcache.avg_blocked_cycles::no_mshrs    30.336478                       # average number of cycles each access was blocked
system.cpu.dcache.avg_blocked_cycles::no_targets          nan                       # average number of cycles each access was blocked
system.cpu.dcache.writebacks::.writebacks        12867                       # number of writebacks
system.cpu.dcache.writebacks::total             12867                       # number of writebacks
system.cpu.dcache.demand_mshr_hits::.cpu.data        35559                       # number of demand (read+write) MSHR hits
system.cpu.dcache.demand_mshr_hits::total        35559                       # number of demand (read+write) MSHR hits
system.cpu.dcache.overall_mshr_hits::.cpu.data        35559                       # number of overall MSHR hits
system.cpu.dcache.overall_mshr_hits::total        35559                       # number of overall MSHR hits
system.cpu.dcache.demand_mshr_misses::.cpu.data        46519                       # number of demand (read+write) MSHR misses
system.cpu.dcache.demand_mshr_misses::total        46519                       # number of demand (read+write) MSHR misses
system.cpu.dcache.overall_mshr_misses::.cpu.data        46522                       # number of overall MSHR misses
system.cpu.dcache.overall_mshr_misses::total        46522                       # number of overall MSHR misses
system.cpu.dcache.demand_mshr_miss_latency::.cpu.data    994750373                       # number of demand (read+write) MSHR miss cycles
system.cpu.dcache.demand_mshr_miss_latency::total    994750373                       # number of demand (read+write) MSHR miss cycles
system.cpu.dcache.overall_mshr_miss_latency::.cpu.data    994946873                       # number of overall MSHR miss cycles
system.cpu.dcache.overall_mshr_miss_latency::total    994946873                       # number of overall MSHR miss cycles
system.cpu.dcache.demand_mshr_miss_rate::.cpu.data     0.012482                       # mshr miss rate for demand accesses
system.cpu.dcache.demand_mshr_miss_rate::total     0.012482                       # mshr miss rate for demand accesses
system.cpu.dcache.overall_mshr_miss_rate::.cpu.data     0.012483                       # mshr miss rate for overall accesses
system.cpu.dcache.overall_mshr_miss_rate::total     0.012483                       # mshr miss rate for overall accesses
system.cpu.dcache.demand_avg_mshr_miss_latency::.cpu.data 21383.743696                       # average overall mshr miss latency
system.cpu.dcache.demand_avg_mshr_miss_latency::total 21383.743696                       # average overall mshr miss latency
system.cpu.dcache.overall_avg_mshr_miss_latency::.cpu.data 21386.588560                       # average overall mshr miss latency
system.cpu.dcache.overall_avg_mshr_miss_latency::total 21386.588560                       # average overall mshr miss latency
system.cpu.dcache.replacements                  46020                       # number of replacements
system.cpu.dcache.ReadReq_hits::.cpu.data      1992434                       # number of ReadReq hits
system.cpu.dcache.ReadReq_hits::total         1992434                       # number of ReadReq hits
system.cpu.dcache.ReadReq_misses::.cpu.data        71468                       # number of ReadReq misses
system.cpu.dcache.ReadReq_misses::total         71468                       # number of ReadReq misses
system.cpu.dcache.ReadReq_miss_latency::.cpu.data   1866775000                       # number of ReadReq miss cycles
system.cpu.dcache.ReadReq_miss_latency::total   1866775000                       # number of ReadReq miss cycles
system.cpu.dcache.ReadReq_accesses::.cpu.data      2063902                       # number of ReadReq accesses(hits+misses)
system.cpu.dcache.ReadReq_accesses::total      2063902                       # number of ReadReq accesses(hits+misses)
system.cpu.dcache.ReadReq_miss_rate::.cpu.data     0.034628                       # miss rate for ReadReq accesses
system.cpu.dcache.ReadReq_miss_rate::total     0.034628                       # miss rate for ReadReq accesses
system.cpu.dcache.ReadReq_avg_miss_latency::.cpu.data 26120.431522                       # average ReadReq miss latency
system.cpu.dcache.ReadReq_avg_miss_latency::total 26120.431522                       # average ReadReq miss latency
system.cpu.dcache.ReadReq_mshr_hits::.cpu.data        28591                       # number of ReadReq MSHR hits
system.cpu.dcache.ReadReq_mshr_hits::total        28591                       # number of ReadReq MSHR hits
system.cpu.dcache.ReadReq_mshr_misses::.cpu.data        42877                       # number of ReadReq MSHR misses
system.cpu.dcache.ReadReq_mshr_misses::total        42877                       # number of ReadReq MSHR misses
system.cpu.dcache.ReadReq_mshr_miss_latency::.cpu.data    785543000                       # number of ReadReq MSHR miss cycles
system.cpu.dcache.ReadReq_mshr_miss_latency::total    785543000                       # number of ReadReq MSHR miss cycles
system.cpu.dcache.ReadReq_mshr_miss_rate::.cpu.data     0.020775                       # mshr miss rate for ReadReq accesses
system.cpu.dcache.ReadReq_mshr_miss_rate::total     0.020775                       # mshr miss rate for ReadReq accesses
system.cpu.dcache.ReadReq_avg_mshr_miss_latency::.cpu.data 18320.848007                       # average ReadReq mshr miss latency
system.cpu.dcache.ReadReq_avg_mshr_miss_latency::total 18320.848007                       # average ReadReq mshr miss latency
system.cpu.dcache.WriteReq_hits::.cpu.data      1652334                       # number of WriteReq hits
system.cpu.dcache.WriteReq_hits::total        1652334                       # number of WriteReq hits
system.cpu.dcache.WriteReq_misses::.cpu.data        10447                       # number of WriteReq misses
system.cpu.dcache.WriteReq_misses::total        10447                       # number of WriteReq misses
system.cpu.dcache.WriteReq_miss_latency::.cpu.data    526340401                       # number of WriteReq miss cycles
system.cpu.dcache.WriteReq_miss_latency::total    526340401                       # number of WriteReq miss cycles
system.cpu.dcache.WriteReq_accesses::.cpu.data      1662781                       # number of WriteReq accesses(hits+misses)
system.cpu.dcache.WriteReq_accesses::total      1662781                       # number of WriteReq accesses(hits+misses)
system.cpu.dcache.WriteReq_miss_rate::.cpu.data     0.006283                       # miss rate for WriteReq accesses
system.cpu.dcache.WriteReq_miss_rate::total     0.006283                       # miss rate for WriteReq accesses
system.cpu.dcache.WriteReq_avg_miss_latency::.cpu.data 50381.966210                       # average WriteReq miss latency
system.cpu.dcache.WriteReq_avg_miss_latency::total 50381.966210                       # average WriteReq miss latency
system.cpu.dcache.WriteReq_mshr_hits::.cpu.data         6968                       # number of WriteReq MSHR hits
system.cpu.dcache.WriteReq_mshr_hits::total         6968                       # number of WriteReq MSHR hits
system.cpu.dcache.WriteReq_mshr_misses::.cpu.data         3479                       # number of WriteReq MSHR misses
system.cpu.dcache.WriteReq_mshr_misses::total         3479                       # number of WriteReq MSHR misses
system.cpu.dcache.WriteReq_mshr_miss_latency::.cpu.data    204525486                       # number of WriteReq MSHR miss cycles
system.cpu.dcache.WriteReq_mshr_miss_latency::total    204525486                       # number of WriteReq MSHR miss cycles
system.cpu.dcache.WriteReq_mshr_miss_rate::.cpu.data     0.002092                       # mshr miss rate for WriteReq accesses
system.cpu.dcache.WriteReq_mshr_miss_rate::total     0.002092                       # mshr miss rate for WriteReq accesses
system.cpu.dcache.WriteReq_avg_mshr_miss_latency::.cpu.data 58788.584651                       # average WriteReq mshr miss latency
system.cpu.dcache.WriteReq_avg_mshr_miss_latency::total 58788.584651                       # average WriteReq mshr miss latency
system.cpu.dcache.SoftPFReq_hits::.cpu.data           33                       # number of SoftPFReq hits
system.cpu.dcache.SoftPFReq_hits::total            33                       # number of SoftPFReq hits
system.cpu.dcache.SoftPFReq_misses::.cpu.data            3                       # number of SoftPFReq misses
system.cpu.dcache.SoftPFReq_misses::total            3                       # number of SoftPFReq misses
system.cpu.dcache.SoftPFReq_accesses::.cpu.data           36                       # number of SoftPFReq accesses(hits+misses)
system.cpu.dcache.SoftPFReq_accesses::total           36                       # number of SoftPFReq accesses(hits+misses)
system.cpu.dcache.SoftPFReq_miss_rate::.cpu.data     0.083333                       # miss rate for SoftPFReq accesses
system.cpu.dcache.SoftPFReq_miss_rate::total     0.083333                       # miss rate for SoftPFReq accesses
system.cpu.dcache.SoftPFReq_mshr_misses::.cpu.data            3                       # number of SoftPFReq MSHR misses
system.cpu.dcache.SoftPFReq_mshr_misses::total            3                       # number of SoftPFReq MSHR misses
system.cpu.dcache.SoftPFReq_mshr_miss_latency::.cpu.data       196500                       # number of SoftPFReq MSHR miss cycles
system.cpu.dcache.SoftPFReq_mshr_miss_latency::total       196500                       # number of SoftPFReq MSHR miss cycles
system.cpu.dcache.SoftPFReq_mshr_miss_rate::.cpu.data     0.083333                       # mshr miss rate for SoftPFReq accesses
system.cpu.dcache.SoftPFReq_mshr_miss_rate::total     0.083333                       # mshr miss rate for SoftPFReq accesses
system.cpu.dcache.SoftPFReq_avg_mshr_miss_latency::.cpu.data        65500                       # average SoftPFReq mshr miss latency
system.cpu.dcache.SoftPFReq_avg_mshr_miss_latency::total        65500                       # average SoftPFReq mshr miss latency
system.cpu.dcache.WriteLineReq_hits::.cpu.data           80                       # number of WriteLineReq hits
system.cpu.dcache.WriteLineReq_hits::total           80                       # number of WriteLineReq hits
system.cpu.dcache.WriteLineReq_misses::.cpu.data          163                       # number of WriteLineReq misses
system.cpu.dcache.WriteLineReq_misses::total          163                       # number of WriteLineReq misses
system.cpu.dcache.WriteLineReq_miss_latency::.cpu.data      4844887                       # number of WriteLineReq miss cycles
system.cpu.dcache.WriteLineReq_miss_latency::total      4844887                       # number of WriteLineReq miss cycles
system.cpu.dcache.WriteLineReq_accesses::.cpu.data          243                       # number of WriteLineReq accesses(hits+misses)
system.cpu.dcache.WriteLineReq_accesses::total          243                       # number of WriteLineReq accesses(hits+misses)
system.cpu.dcache.WriteLineReq_miss_rate::.cpu.data     0.670782                       # miss rate for WriteLineReq accesses
system.cpu.dcache.WriteLineReq_miss_rate::total     0.670782                       # miss rate for WriteLineReq accesses
system.cpu.dcache.WriteLineReq_avg_miss_latency::.cpu.data 29723.233129                       # average WriteLineReq miss latency
system.cpu.dcache.WriteLineReq_avg_miss_latency::total 29723.233129                       # average WriteLineReq miss latency
system.cpu.dcache.WriteLineReq_mshr_misses::.cpu.data          163                       # number of WriteLineReq MSHR misses
system.cpu.dcache.WriteLineReq_mshr_misses::total          163                       # number of WriteLineReq MSHR misses
system.cpu.dcache.WriteLineReq_mshr_miss_latency::.cpu.data      4681887                       # number of WriteLineReq MSHR miss cycles
system.cpu.dcache.WriteLineReq_mshr_miss_latency::total      4681887                       # number of WriteLineReq MSHR miss cycles
system.cpu.dcache.WriteLineReq_mshr_miss_rate::.cpu.data     0.670782                       # mshr miss rate for WriteLineReq accesses
system.cpu.dcache.WriteLineReq_mshr_miss_rate::total     0.670782                       # mshr miss rate for WriteLineReq accesses
system.cpu.dcache.WriteLineReq_avg_mshr_miss_latency::.cpu.data 28723.233129                       # average WriteLineReq mshr miss latency
system.cpu.dcache.WriteLineReq_avg_mshr_miss_latency::total 28723.233129                       # average WriteLineReq mshr miss latency
system.cpu.dcache.LoadLockedReq_hits::.cpu.data         1241                       # number of LoadLockedReq hits
system.cpu.dcache.LoadLockedReq_hits::total         1241                       # number of LoadLockedReq hits
system.cpu.dcache.LoadLockedReq_misses::.cpu.data           11                       # number of LoadLockedReq misses
system.cpu.dcache.LoadLockedReq_misses::total           11                       # number of LoadLockedReq misses
system.cpu.dcache.LoadLockedReq_miss_latency::.cpu.data       388500                       # number of LoadLockedReq miss cycles
system.cpu.dcache.LoadLockedReq_miss_latency::total       388500                       # number of LoadLockedReq miss cycles
system.cpu.dcache.LoadLockedReq_accesses::.cpu.data         1252                       # number of LoadLockedReq accesses(hits+misses)
system.cpu.dcache.LoadLockedReq_accesses::total         1252                       # number of LoadLockedReq accesses(hits+misses)
system.cpu.dcache.LoadLockedReq_miss_rate::.cpu.data     0.008786                       # miss rate for LoadLockedReq accesses
system.cpu.dcache.LoadLockedReq_miss_rate::total     0.008786                       # miss rate for LoadLockedReq accesses
system.cpu.dcache.LoadLockedReq_avg_miss_latency::.cpu.data 35318.181818                       # average LoadLockedReq miss latency
system.cpu.dcache.LoadLockedReq_avg_miss_latency::total 35318.181818                       # average LoadLockedReq miss latency
system.cpu.dcache.LoadLockedReq_mshr_hits::.cpu.data            1                       # number of LoadLockedReq MSHR hits
system.cpu.dcache.LoadLockedReq_mshr_hits::total            1                       # number of LoadLockedReq MSHR hits
system.cpu.dcache.LoadLockedReq_mshr_misses::.cpu.data           10                       # number of LoadLockedReq MSHR misses
system.cpu.dcache.LoadLockedReq_mshr_misses::total           10                       # number of LoadLockedReq MSHR misses
system.cpu.dcache.LoadLockedReq_mshr_miss_latency::.cpu.data       291000                       # number of LoadLockedReq MSHR miss cycles
system.cpu.dcache.LoadLockedReq_mshr_miss_latency::total       291000                       # number of LoadLockedReq MSHR miss cycles
system.cpu.dcache.LoadLockedReq_mshr_miss_rate::.cpu.data     0.007987                       # mshr miss rate for LoadLockedReq accesses
system.cpu.dcache.LoadLockedReq_mshr_miss_rate::total     0.007987                       # mshr miss rate for LoadLockedReq accesses
system.cpu.dcache.LoadLockedReq_avg_mshr_miss_latency::.cpu.data        29100                       # average LoadLockedReq mshr miss latency
system.cpu.dcache.LoadLockedReq_avg_mshr_miss_latency::total        29100                       # average LoadLockedReq mshr miss latency
system.cpu.dcache.StoreCondReq_hits::.cpu.data         1097                       # number of StoreCondReq hits
system.cpu.dcache.StoreCondReq_hits::total         1097                       # number of StoreCondReq hits
system.cpu.dcache.StoreCondReq_accesses::.cpu.data         1097                       # number of StoreCondReq accesses(hits+misses)
system.cpu.dcache.StoreCondReq_accesses::total         1097                       # number of StoreCondReq accesses(hits+misses)
system.cpu.dcache.power_state.pwrStateResidencyTicks::UNDEFINED   5118726500                       # Cumulative time (in ticks) in various power states
system.cpu.dcache.tags.tagsinuse           507.413901                       # Cycle average of tags in use
system.cpu.dcache.tags.total_refs             3693751                       # Total number of references to valid blocks.
system.cpu.dcache.tags.sampled_refs             46532                       # Sample count of references to valid blocks.
system.cpu.dcache.tags.avg_refs             79.380878                       # Average number of references to valid blocks.
system.cpu.dcache.tags.warmup_cycle            176500                       # Cycle when the warmup percentage was hit.
system.cpu.dcache.tags.occ_blocks::.cpu.data   507.413901                       # Average occupied blocks per requestor
system.cpu.dcache.tags.occ_percent::.cpu.data     0.991043                       # Average percentage of cache occupancy
system.cpu.dcache.tags.occ_percent::total     0.991043                       # Average percentage of cache occupancy
system.cpu.dcache.tags.occ_task_id_blocks::1024          512                       # Occupied blocks per task id
system.cpu.dcache.tags.age_task_id_blocks_1024::0          155                       # Occupied blocks per task id
system.cpu.dcache.tags.age_task_id_blocks_1024::1          357                       # Occupied blocks per task id
system.cpu.dcache.tags.occ_task_id_percent::1024            1                       # Percentage of cache occupancy per task id
system.cpu.dcache.tags.tag_accesses           7505154                       # Number of tag accesses
system.cpu.dcache.tags.data_accesses          7505154                       # Number of data accesses
system.cpu.dcache.tags.power_state.pwrStateResidencyTicks::UNDEFINED   5118726500                       # Cumulative time (in ticks) in various power states
system.cpu.power_state.pwrStateResidencyTicks::ON   5118726500                       # Cumulative time (in ticks) in various power states

---------- End Simulation Statistics   ----------
