
---------- Begin Simulation Statistics ----------
final_tick                               596683674500                       # Number of ticks from beginning of simulation (restored from checkpoints and never reset)
host_inst_rate                                 228016                       # Simulator instruction rate (inst/s)
host_mem_usage                                 980752                       # Number of bytes of host memory used
host_op_rate                                   241801                       # Simulator op (including micro ops) rate (op/s)
host_seconds                                  4604.93                       # Real time elapsed on the host
host_tick_rate                              129574961                       # Simulator tick rate (ticks/s)
sim_freq                                 1000000000000                       # Frequency of simulated ticks
sim_insts                                  1050000002                       # Number of instructions simulated
sim_ops                                    1113476947                       # Number of ops (including micro ops) simulated
sim_seconds                                  0.596684                       # Number of seconds simulated
sim_ticks                                596683674500                       # Number of ticks simulated
system.cpu.Branches                         194543882                       # Number of branches fetched
system.cpu.committedInsts                  1000000001                       # Number of instructions committed
system.cpu.committedOps                    1060218710                       # Number of ops (including micro ops) committed
system.cpu.dtb.accesses                             0                       # DTB accesses
system.cpu.dtb.align_faults                         0                       # Number of TLB faults due to alignment restrictions
system.cpu.dtb.domain_faults                        0                       # Number of TLB faults due to domain restrictions
system.cpu.dtb.flush_entries                        0                       # Number of entries that have been flushed from TLB
system.cpu.dtb.flush_tlb                            2                       # Number of times complete TLB was flushed
system.cpu.dtb.flush_tlb_asid                       0                       # Number of times TLB was flushed by ASID
system.cpu.dtb.flush_tlb_mva                        0                       # Number of times TLB was flushed by MVA
system.cpu.dtb.flush_tlb_mva_asid                   0                       # Number of times TLB was flushed by MVA & ASID
system.cpu.dtb.hits                                 0                       # DTB hits
system.cpu.dtb.inst_accesses                        0                       # ITB inst accesses
system.cpu.dtb.inst_hits                            0                       # ITB inst hits
system.cpu.dtb.inst_misses                          0                       # ITB inst misses
system.cpu.dtb.misses                               0                       # DTB misses
system.cpu.dtb.perms_faults                         0                       # Number of TLB faults due to permissions restrictions
system.cpu.dtb.prefetch_faults                      0                       # Number of TLB faults due to prefetch
system.cpu.dtb.read_accesses                        0                       # DTB read accesses
system.cpu.dtb.read_hits                            0                       # DTB read hits
system.cpu.dtb.read_misses                          0                       # DTB read misses
system.cpu.dtb.stage2_mmu.stage2_tlb.accesses            0                       # DTB accesses
system.cpu.dtb.stage2_mmu.stage2_tlb.align_faults            0                       # Number of TLB faults due to alignment restrictions
system.cpu.dtb.stage2_mmu.stage2_tlb.domain_faults            0                       # Number of TLB faults due to domain restrictions
system.cpu.dtb.stage2_mmu.stage2_tlb.flush_entries            0                       # Number of entries that have been flushed from TLB
system.cpu.dtb.stage2_mmu.stage2_tlb.flush_tlb            0                       # Number of times complete TLB was flushed
system.cpu.dtb.stage2_mmu.stage2_tlb.flush_tlb_asid            0                       # Number of times TLB was flushed by ASID
system.cpu.dtb.stage2_mmu.stage2_tlb.flush_tlb_mva            0                       # Number of times TLB was flushed by MVA
system.cpu.dtb.stage2_mmu.stage2_tlb.flush_tlb_mva_asid            0                       # Number of times TLB was flushed by MVA & ASID
system.cpu.dtb.stage2_mmu.stage2_tlb.hits            0                       # DTB hits
system.cpu.dtb.stage2_mmu.stage2_tlb.inst_accesses            0                       # ITB inst accesses
system.cpu.dtb.stage2_mmu.stage2_tlb.inst_hits            0                       # ITB inst hits
system.cpu.dtb.stage2_mmu.stage2_tlb.inst_misses            0                       # ITB inst misses
system.cpu.dtb.stage2_mmu.stage2_tlb.misses            0                       # DTB misses
system.cpu.dtb.stage2_mmu.stage2_tlb.perms_faults            0                       # Number of TLB faults due to permissions restrictions
system.cpu.dtb.stage2_mmu.stage2_tlb.prefetch_faults            0                       # Number of TLB faults due to prefetch
system.cpu.dtb.stage2_mmu.stage2_tlb.read_accesses            0                       # DTB read accesses
system.cpu.dtb.stage2_mmu.stage2_tlb.read_hits            0                       # DTB read hits
system.cpu.dtb.stage2_mmu.stage2_tlb.read_misses            0                       # DTB read misses
system.cpu.dtb.stage2_mmu.stage2_tlb.walker.walkRequestOrigin_Requested::Data            0                       # Table walker requests started/completed, data/inst
system.cpu.dtb.stage2_mmu.stage2_tlb.walker.walkRequestOrigin_Requested::Inst            0                       # Table walker requests started/completed, data/inst
system.cpu.dtb.stage2_mmu.stage2_tlb.walker.walkRequestOrigin_Requested::total            0                       # Table walker requests started/completed, data/inst
system.cpu.dtb.stage2_mmu.stage2_tlb.walker.walkRequestOrigin_Completed::Data            0                       # Table walker requests started/completed, data/inst
system.cpu.dtb.stage2_mmu.stage2_tlb.walker.walkRequestOrigin_Completed::Inst            0                       # Table walker requests started/completed, data/inst
system.cpu.dtb.stage2_mmu.stage2_tlb.walker.walkRequestOrigin_Completed::total            0                       # Table walker requests started/completed, data/inst
system.cpu.dtb.stage2_mmu.stage2_tlb.walker.walkRequestOrigin::total            0                       # Table walker requests started/completed, data/inst
system.cpu.dtb.stage2_mmu.stage2_tlb.walker.walks            0                       # Table walker walks requested
system.cpu.dtb.stage2_mmu.stage2_tlb.write_accesses            0                       # DTB write accesses
system.cpu.dtb.stage2_mmu.stage2_tlb.write_hits            0                       # DTB write hits
system.cpu.dtb.stage2_mmu.stage2_tlb.write_misses            0                       # DTB write misses
system.cpu.dtb.walker.walkRequestOrigin_Requested::Data            0                       # Table walker requests started/completed, data/inst
system.cpu.dtb.walker.walkRequestOrigin_Requested::Inst            0                       # Table walker requests started/completed, data/inst
system.cpu.dtb.walker.walkRequestOrigin_Requested::total            0                       # Table walker requests started/completed, data/inst
system.cpu.dtb.walker.walkRequestOrigin_Completed::Data            0                       # Table walker requests started/completed, data/inst
system.cpu.dtb.walker.walkRequestOrigin_Completed::Inst            0                       # Table walker requests started/completed, data/inst
system.cpu.dtb.walker.walkRequestOrigin_Completed::total            0                       # Table walker requests started/completed, data/inst
system.cpu.dtb.walker.walkRequestOrigin::total            0                       # Table walker requests started/completed, data/inst
system.cpu.dtb.walker.walks                         0                       # Table walker walks requested
system.cpu.dtb.write_accesses                       0                       # DTB write accesses
system.cpu.dtb.write_hits                           0                       # DTB write hits
system.cpu.dtb.write_misses                         0                       # DTB write misses
system.cpu.idle_fraction                            0                       # Percentage of idle cycles
system.cpu.itb.accesses                             0                       # DTB accesses
system.cpu.itb.align_faults                         0                       # Number of TLB faults due to alignment restrictions
system.cpu.itb.domain_faults                        0                       # Number of TLB faults due to domain restrictions
system.cpu.itb.flush_entries                        0                       # Number of entries that have been flushed from TLB
system.cpu.itb.flush_tlb                            2                       # Number of times complete TLB was flushed
system.cpu.itb.flush_tlb_asid                       0                       # Number of times TLB was flushed by ASID
system.cpu.itb.flush_tlb_mva                        0                       # Number of times TLB was flushed by MVA
system.cpu.itb.flush_tlb_mva_asid                   0                       # Number of times TLB was flushed by MVA & ASID
system.cpu.itb.hits                                 0                       # DTB hits
system.cpu.itb.inst_accesses                        0                       # ITB inst accesses
system.cpu.itb.inst_hits                            0                       # ITB inst hits
system.cpu.itb.inst_misses                          0                       # ITB inst misses
system.cpu.itb.misses                               0                       # DTB misses
system.cpu.itb.perms_faults                         0                       # Number of TLB faults due to permissions restrictions
system.cpu.itb.prefetch_faults                      0                       # Number of TLB faults due to prefetch
system.cpu.itb.read_accesses                        0                       # DTB read accesses
system.cpu.itb.read_hits                            0                       # DTB read hits
system.cpu.itb.read_misses                          0                       # DTB read misses
system.cpu.itb.stage2_mmu.stage2_tlb.accesses            0                       # DTB accesses
system.cpu.itb.stage2_mmu.stage2_tlb.align_faults            0                       # Number of TLB faults due to alignment restrictions
system.cpu.itb.stage2_mmu.stage2_tlb.domain_faults            0                       # Number of TLB faults due to domain restrictions
system.cpu.itb.stage2_mmu.stage2_tlb.flush_entries            0                       # Number of entries that have been flushed from TLB
system.cpu.itb.stage2_mmu.stage2_tlb.flush_tlb            0                       # Number of times complete TLB was flushed
system.cpu.itb.stage2_mmu.stage2_tlb.flush_tlb_asid            0                       # Number of times TLB was flushed by ASID
system.cpu.itb.stage2_mmu.stage2_tlb.flush_tlb_mva            0                       # Number of times TLB was flushed by MVA
system.cpu.itb.stage2_mmu.stage2_tlb.flush_tlb_mva_asid            0                       # Number of times TLB was flushed by MVA & ASID
system.cpu.itb.stage2_mmu.stage2_tlb.hits            0                       # DTB hits
system.cpu.itb.stage2_mmu.stage2_tlb.inst_accesses            0                       # ITB inst accesses
system.cpu.itb.stage2_mmu.stage2_tlb.inst_hits            0                       # ITB inst hits
system.cpu.itb.stage2_mmu.stage2_tlb.inst_misses            0                       # ITB inst misses
system.cpu.itb.stage2_mmu.stage2_tlb.misses            0                       # DTB misses
system.cpu.itb.stage2_mmu.stage2_tlb.perms_faults            0                       # Number of TLB faults due to permissions restrictions
system.cpu.itb.stage2_mmu.stage2_tlb.prefetch_faults            0                       # Number of TLB faults due to prefetch
system.cpu.itb.stage2_mmu.stage2_tlb.read_accesses            0                       # DTB read accesses
system.cpu.itb.stage2_mmu.stage2_tlb.read_hits            0                       # DTB read hits
system.cpu.itb.stage2_mmu.stage2_tlb.read_misses            0                       # DTB read misses
system.cpu.itb.stage2_mmu.stage2_tlb.walker.walkRequestOrigin_Requested::Data            0                       # Table walker requests started/completed, data/inst
system.cpu.itb.stage2_mmu.stage2_tlb.walker.walkRequestOrigin_Requested::Inst            0                       # Table walker requests started/completed, data/inst
system.cpu.itb.stage2_mmu.stage2_tlb.walker.walkRequestOrigin_Requested::total            0                       # Table walker requests started/completed, data/inst
system.cpu.itb.stage2_mmu.stage2_tlb.walker.walkRequestOrigin_Completed::Data            0                       # Table walker requests started/completed, data/inst
system.cpu.itb.stage2_mmu.stage2_tlb.walker.walkRequestOrigin_Completed::Inst            0                       # Table walker requests started/completed, data/inst
system.cpu.itb.stage2_mmu.stage2_tlb.walker.walkRequestOrigin_Completed::total            0                       # Table walker requests started/completed, data/inst
system.cpu.itb.stage2_mmu.stage2_tlb.walker.walkRequestOrigin::total            0                       # Table walker requests started/completed, data/inst
system.cpu.itb.stage2_mmu.stage2_tlb.walker.walks            0                       # Table walker walks requested
system.cpu.itb.stage2_mmu.stage2_tlb.write_accesses            0                       # DTB write accesses
system.cpu.itb.stage2_mmu.stage2_tlb.write_hits            0                       # DTB write hits
system.cpu.itb.stage2_mmu.stage2_tlb.write_misses            0                       # DTB write misses
system.cpu.itb.walker.walkRequestOrigin_Requested::Data            0                       # Table walker requests started/completed, data/inst
system.cpu.itb.walker.walkRequestOrigin_Requested::Inst            0                       # Table walker requests started/completed, data/inst
system.cpu.itb.walker.walkRequestOrigin_Requested::total            0                       # Table walker requests started/completed, data/inst
system.cpu.itb.walker.walkRequestOrigin_Completed::Data            0                       # Table walker requests started/completed, data/inst
system.cpu.itb.walker.walkRequestOrigin_Completed::Inst            0                       # Table walker requests started/completed, data/inst
system.cpu.itb.walker.walkRequestOrigin_Completed::total            0                       # Table walker requests started/completed, data/inst
system.cpu.itb.walker.walkRequestOrigin::total            0                       # Table walker requests started/completed, data/inst
system.cpu.itb.walker.walks                         0                       # Table walker walks requested
system.cpu.itb.write_accesses                       0                       # DTB write accesses
system.cpu.itb.write_hits                           0                       # DTB write hits
system.cpu.itb.write_misses                         0                       # DTB write misses
system.cpu.not_idle_fraction                        1                       # Percentage of non-idle cycles
system.cpu.numCycles                       1060262876                       # number of cpu cycles simulated
system.cpu.numWorkItemsCompleted                    0                       # number of work items this cpu completed
system.cpu.numWorkItemsStarted                      0                       # number of work items this cpu started
system.cpu.num_busy_cycles                 1060262876                       # Number of busy cycles
system.cpu.num_cc_register_reads            490951296                       # number of times the CC registers were read
system.cpu.num_cc_register_writes           447945220                       # number of times the CC registers were written
system.cpu.num_conditional_control_insts    164915914                       # number of instructions that are conditional controls
system.cpu.num_fp_alu_accesses                      0                       # Number of float alu accesses
system.cpu.num_fp_insts                             0                       # number of float instructions
system.cpu.num_fp_register_reads                    0                       # number of times the floating registers were read
system.cpu.num_fp_register_writes                   0                       # number of times the floating registers were written
system.cpu.num_func_calls                    14674451                       # number of times a function call or return occured
system.cpu.num_idle_cycles                          0                       # Number of idle cycles
system.cpu.num_int_alu_accesses             914657920                       # Number of integer alu accesses
system.cpu.num_int_insts                    914657920                       # number of integer instructions
system.cpu.num_int_register_reads          1231171023                       # number of times the integer registers were read
system.cpu.num_int_register_writes          802645863                       # number of times the integer registers were written
system.cpu.num_load_insts                   176942031                       # Number of load instructions
system.cpu.num_mem_refs                     259957163                       # number of memory refs
system.cpu.num_store_insts                   83015132                       # Number of store instructions
system.cpu.num_vec_alu_accesses                 32128                       # Number of vector alu accesses
system.cpu.num_vec_insts                        32128                       # number of vector instructions
system.cpu.num_vec_register_reads               40906                       # number of times the vector registers were read
system.cpu.num_vec_register_writes              23638                       # number of times the vector registers were written
system.cpu.op_class::No_OpClass                  1465      0.00%      0.00% # Class of executed instruction
system.cpu.op_class::IntAlu                 795016253     74.98%     74.98% # Class of executed instruction
system.cpu.op_class::IntMult                  4801999      0.45%     75.44% # Class of executed instruction
system.cpu.op_class::IntDiv                    466719      0.04%     75.48% # Class of executed instruction
system.cpu.op_class::FloatAdd                       0      0.00%     75.48% # Class of executed instruction
system.cpu.op_class::FloatCmp                       7      0.00%     75.48% # Class of executed instruction
system.cpu.op_class::FloatCvt                      23      0.00%     75.48% # Class of executed instruction
system.cpu.op_class::FloatMult                      7      0.00%     75.48% # Class of executed instruction
system.cpu.op_class::FloatMultAcc                   0      0.00%     75.48% # Class of executed instruction
system.cpu.op_class::FloatDiv                       7      0.00%     75.48% # Class of executed instruction
system.cpu.op_class::FloatMisc                     71      0.00%     75.48% # Class of executed instruction
system.cpu.op_class::FloatSqrt                      0      0.00%     75.48% # Class of executed instruction
system.cpu.op_class::SimdAdd                     2963      0.00%     75.48% # Class of executed instruction
system.cpu.op_class::SimdAddAcc                     0      0.00%     75.48% # Class of executed instruction
system.cpu.op_class::SimdAlu                     5893      0.00%     75.48% # Class of executed instruction
system.cpu.op_class::SimdCmp                     5852      0.00%     75.48% # Class of executed instruction
system.cpu.op_class::SimdCvt                        0      0.00%     75.48% # Class of executed instruction
system.cpu.op_class::SimdMisc                    4454      0.00%     75.48% # Class of executed instruction
system.cpu.op_class::SimdMult                       0      0.00%     75.48% # Class of executed instruction
system.cpu.op_class::SimdMultAcc                    0      0.00%     75.48% # Class of executed instruction
system.cpu.op_class::SimdShift                      0      0.00%     75.48% # Class of executed instruction
system.cpu.op_class::SimdShiftAcc                   0      0.00%     75.48% # Class of executed instruction
system.cpu.op_class::SimdDiv                        0      0.00%     75.48% # Class of executed instruction
system.cpu.op_class::SimdSqrt                       0      0.00%     75.48% # Class of executed instruction
system.cpu.op_class::SimdFloatAdd                   0      0.00%     75.48% # Class of executed instruction
system.cpu.op_class::SimdFloatAlu                   0      0.00%     75.48% # Class of executed instruction
system.cpu.op_class::SimdFloatCmp                   0      0.00%     75.48% # Class of executed instruction
system.cpu.op_class::SimdFloatCvt                   0      0.00%     75.48% # Class of executed instruction
system.cpu.op_class::SimdFloatDiv                   0      0.00%     75.48% # Class of executed instruction
system.cpu.op_class::SimdFloatMisc                  0      0.00%     75.48% # Class of executed instruction
system.cpu.op_class::SimdFloatMult                  0      0.00%     75.48% # Class of executed instruction
system.cpu.op_class::SimdFloatMultAcc               0      0.00%     75.48% # Class of executed instruction
system.cpu.op_class::SimdFloatSqrt                  0      0.00%     75.48% # Class of executed instruction
system.cpu.op_class::SimdReduceAdd                  0      0.00%     75.48% # Class of executed instruction
system.cpu.op_class::SimdReduceAlu                  0      0.00%     75.48% # Class of executed instruction
system.cpu.op_class::SimdReduceCmp                  0      0.00%     75.48% # Class of executed instruction
system.cpu.op_class::SimdFloatReduceAdd             0      0.00%     75.48% # Class of executed instruction
system.cpu.op_class::SimdFloatReduceCmp             0      0.00%     75.48% # Class of executed instruction
system.cpu.op_class::SimdAes                        0      0.00%     75.48% # Class of executed instruction
system.cpu.op_class::SimdAesMix                     0      0.00%     75.48% # Class of executed instruction
system.cpu.op_class::SimdSha1Hash                   0      0.00%     75.48% # Class of executed instruction
system.cpu.op_class::SimdSha1Hash2                  0      0.00%     75.48% # Class of executed instruction
system.cpu.op_class::SimdSha256Hash                 0      0.00%     75.48% # Class of executed instruction
system.cpu.op_class::SimdSha256Hash2                0      0.00%     75.48% # Class of executed instruction
system.cpu.op_class::SimdShaSigma2                  0      0.00%     75.48% # Class of executed instruction
system.cpu.op_class::SimdShaSigma3                  0      0.00%     75.48% # Class of executed instruction
system.cpu.op_class::SimdPredAlu                    0      0.00%     75.48% # Class of executed instruction
system.cpu.op_class::MemRead                176942031     16.69%     92.17% # Class of executed instruction
system.cpu.op_class::MemWrite                83015132      7.83%    100.00% # Class of executed instruction
system.cpu.op_class::FloatMemRead                   0      0.00%    100.00% # Class of executed instruction
system.cpu.op_class::FloatMemWrite                  0      0.00%    100.00% # Class of executed instruction
system.cpu.op_class::IprAccess                      0      0.00%    100.00% # Class of executed instruction
system.cpu.op_class::InstPrefetch                   0      0.00%    100.00% # Class of executed instruction
system.cpu.op_class::total                 1060262876                       # Class of executed instruction
system.cpu.workload.numSyscalls                   189                       # Number of system calls
system.membus.snoop_filter.hit_multi_requests            0                       # Number of requests hitting in the snoop filter with multiple (>1) holders of the requested data.
system.membus.snoop_filter.hit_multi_snoops            0                       # Number of snoops hitting in the snoop filter with multiple (>1) holders of the requested data.
system.membus.snoop_filter.hit_single_requests      8533346                       # Number of requests hitting in the snoop filter with a single holder of the requested data.
system.membus.snoop_filter.hit_single_snoops            0                       # Number of snoops hitting in the snoop filter with a single holder of the requested data.
system.membus.snoop_filter.tot_requests      17099728                       # Total number of requests made to the snoop filter.
system.membus.snoop_filter.tot_snoops               0                       # Total number of snoops made to the snoop filter.
system.switch_cpus.Branches                   9568624                       # Number of branches fetched
system.switch_cpus.committedInsts            50000001                       # Number of instructions committed
system.switch_cpus.committedOps              53258237                       # Number of ops (including micro ops) committed
system.switch_cpus.dtb.accesses                     0                       # DTB accesses
system.switch_cpus.dtb.align_faults                 0                       # Number of TLB faults due to alignment restrictions
system.switch_cpus.dtb.domain_faults                0                       # Number of TLB faults due to domain restrictions
system.switch_cpus.dtb.flush_entries                0                       # Number of entries that have been flushed from TLB
system.switch_cpus.dtb.flush_tlb                    0                       # Number of times complete TLB was flushed
system.switch_cpus.dtb.flush_tlb_asid               0                       # Number of times TLB was flushed by ASID
system.switch_cpus.dtb.flush_tlb_mva                0                       # Number of times TLB was flushed by MVA
system.switch_cpus.dtb.flush_tlb_mva_asid            0                       # Number of times TLB was flushed by MVA & ASID
system.switch_cpus.dtb.hits                         0                       # DTB hits
system.switch_cpus.dtb.inst_accesses                0                       # ITB inst accesses
system.switch_cpus.dtb.inst_hits                    0                       # ITB inst hits
system.switch_cpus.dtb.inst_misses                  0                       # ITB inst misses
system.switch_cpus.dtb.misses                       0                       # DTB misses
system.switch_cpus.dtb.perms_faults                 0                       # Number of TLB faults due to permissions restrictions
system.switch_cpus.dtb.prefetch_faults              0                       # Number of TLB faults due to prefetch
system.switch_cpus.dtb.read_accesses                0                       # DTB read accesses
system.switch_cpus.dtb.read_hits                    0                       # DTB read hits
system.switch_cpus.dtb.read_misses                  0                       # DTB read misses
system.switch_cpus.dtb.stage2_mmu.stage2_tlb.accesses            0                       # DTB accesses
system.switch_cpus.dtb.stage2_mmu.stage2_tlb.align_faults            0                       # Number of TLB faults due to alignment restrictions
system.switch_cpus.dtb.stage2_mmu.stage2_tlb.domain_faults            0                       # Number of TLB faults due to domain restrictions
system.switch_cpus.dtb.stage2_mmu.stage2_tlb.flush_entries            0                       # Number of entries that have been flushed from TLB
system.switch_cpus.dtb.stage2_mmu.stage2_tlb.flush_tlb            0                       # Number of times complete TLB was flushed
system.switch_cpus.dtb.stage2_mmu.stage2_tlb.flush_tlb_asid            0                       # Number of times TLB was flushed by ASID
system.switch_cpus.dtb.stage2_mmu.stage2_tlb.flush_tlb_mva            0                       # Number of times TLB was flushed by MVA
system.switch_cpus.dtb.stage2_mmu.stage2_tlb.flush_tlb_mva_asid            0                       # Number of times TLB was flushed by MVA & ASID
system.switch_cpus.dtb.stage2_mmu.stage2_tlb.hits            0                       # DTB hits
system.switch_cpus.dtb.stage2_mmu.stage2_tlb.inst_accesses            0                       # ITB inst accesses
system.switch_cpus.dtb.stage2_mmu.stage2_tlb.inst_hits            0                       # ITB inst hits
system.switch_cpus.dtb.stage2_mmu.stage2_tlb.inst_misses            0                       # ITB inst misses
system.switch_cpus.dtb.stage2_mmu.stage2_tlb.misses            0                       # DTB misses
system.switch_cpus.dtb.stage2_mmu.stage2_tlb.perms_faults            0                       # Number of TLB faults due to permissions restrictions
system.switch_cpus.dtb.stage2_mmu.stage2_tlb.prefetch_faults            0                       # Number of TLB faults due to prefetch
system.switch_cpus.dtb.stage2_mmu.stage2_tlb.read_accesses            0                       # DTB read accesses
system.switch_cpus.dtb.stage2_mmu.stage2_tlb.read_hits            0                       # DTB read hits
system.switch_cpus.dtb.stage2_mmu.stage2_tlb.read_misses            0                       # DTB read misses
system.switch_cpus.dtb.stage2_mmu.stage2_tlb.walker.walkRequestOrigin_Requested::Data            0                       # Table walker requests started/completed, data/inst
system.switch_cpus.dtb.stage2_mmu.stage2_tlb.walker.walkRequestOrigin_Requested::Inst            0                       # Table walker requests started/completed, data/inst
system.switch_cpus.dtb.stage2_mmu.stage2_tlb.walker.walkRequestOrigin_Requested::total            0                       # Table walker requests started/completed, data/inst
system.switch_cpus.dtb.stage2_mmu.stage2_tlb.walker.walkRequestOrigin_Completed::Data            0                       # Table walker requests started/completed, data/inst
system.switch_cpus.dtb.stage2_mmu.stage2_tlb.walker.walkRequestOrigin_Completed::Inst            0                       # Table walker requests started/completed, data/inst
system.switch_cpus.dtb.stage2_mmu.stage2_tlb.walker.walkRequestOrigin_Completed::total            0                       # Table walker requests started/completed, data/inst
system.switch_cpus.dtb.stage2_mmu.stage2_tlb.walker.walkRequestOrigin::total            0                       # Table walker requests started/completed, data/inst
system.switch_cpus.dtb.stage2_mmu.stage2_tlb.walker.walks            0                       # Table walker walks requested
system.switch_cpus.dtb.stage2_mmu.stage2_tlb.write_accesses            0                       # DTB write accesses
system.switch_cpus.dtb.stage2_mmu.stage2_tlb.write_hits            0                       # DTB write hits
system.switch_cpus.dtb.stage2_mmu.stage2_tlb.write_misses            0                       # DTB write misses
system.switch_cpus.dtb.walker.walkRequestOrigin_Requested::Data            0                       # Table walker requests started/completed, data/inst
system.switch_cpus.dtb.walker.walkRequestOrigin_Requested::Inst            0                       # Table walker requests started/completed, data/inst
system.switch_cpus.dtb.walker.walkRequestOrigin_Requested::total            0                       # Table walker requests started/completed, data/inst
system.switch_cpus.dtb.walker.walkRequestOrigin_Completed::Data            0                       # Table walker requests started/completed, data/inst
system.switch_cpus.dtb.walker.walkRequestOrigin_Completed::Inst            0                       # Table walker requests started/completed, data/inst
system.switch_cpus.dtb.walker.walkRequestOrigin_Completed::total            0                       # Table walker requests started/completed, data/inst
system.switch_cpus.dtb.walker.walkRequestOrigin::total            0                       # Table walker requests started/completed, data/inst
system.switch_cpus.dtb.walker.walks                 0                       # Table walker walks requested
system.switch_cpus.dtb.write_accesses               0                       # DTB write accesses
system.switch_cpus.dtb.write_hits                   0                       # DTB write hits
system.switch_cpus.dtb.write_misses                 0                       # DTB write misses
system.switch_cpus.idle_fraction             0.888463                       # Percentage of idle cycles
system.switch_cpus.itb.accesses                     0                       # DTB accesses
system.switch_cpus.itb.align_faults                 0                       # Number of TLB faults due to alignment restrictions
system.switch_cpus.itb.domain_faults                0                       # Number of TLB faults due to domain restrictions
system.switch_cpus.itb.flush_entries                0                       # Number of entries that have been flushed from TLB
system.switch_cpus.itb.flush_tlb                    0                       # Number of times complete TLB was flushed
system.switch_cpus.itb.flush_tlb_asid               0                       # Number of times TLB was flushed by ASID
system.switch_cpus.itb.flush_tlb_mva                0                       # Number of times TLB was flushed by MVA
system.switch_cpus.itb.flush_tlb_mva_asid            0                       # Number of times TLB was flushed by MVA & ASID
system.switch_cpus.itb.hits                         0                       # DTB hits
system.switch_cpus.itb.inst_accesses                0                       # ITB inst accesses
system.switch_cpus.itb.inst_hits                    0                       # ITB inst hits
system.switch_cpus.itb.inst_misses                  0                       # ITB inst misses
system.switch_cpus.itb.misses                       0                       # DTB misses
system.switch_cpus.itb.perms_faults                 0                       # Number of TLB faults due to permissions restrictions
system.switch_cpus.itb.prefetch_faults              0                       # Number of TLB faults due to prefetch
system.switch_cpus.itb.read_accesses                0                       # DTB read accesses
system.switch_cpus.itb.read_hits                    0                       # DTB read hits
system.switch_cpus.itb.read_misses                  0                       # DTB read misses
system.switch_cpus.itb.stage2_mmu.stage2_tlb.accesses            0                       # DTB accesses
system.switch_cpus.itb.stage2_mmu.stage2_tlb.align_faults            0                       # Number of TLB faults due to alignment restrictions
system.switch_cpus.itb.stage2_mmu.stage2_tlb.domain_faults            0                       # Number of TLB faults due to domain restrictions
system.switch_cpus.itb.stage2_mmu.stage2_tlb.flush_entries            0                       # Number of entries that have been flushed from TLB
system.switch_cpus.itb.stage2_mmu.stage2_tlb.flush_tlb            0                       # Number of times complete TLB was flushed
system.switch_cpus.itb.stage2_mmu.stage2_tlb.flush_tlb_asid            0                       # Number of times TLB was flushed by ASID
system.switch_cpus.itb.stage2_mmu.stage2_tlb.flush_tlb_mva            0                       # Number of times TLB was flushed by MVA
system.switch_cpus.itb.stage2_mmu.stage2_tlb.flush_tlb_mva_asid            0                       # Number of times TLB was flushed by MVA & ASID
system.switch_cpus.itb.stage2_mmu.stage2_tlb.hits            0                       # DTB hits
system.switch_cpus.itb.stage2_mmu.stage2_tlb.inst_accesses            0                       # ITB inst accesses
system.switch_cpus.itb.stage2_mmu.stage2_tlb.inst_hits            0                       # ITB inst hits
system.switch_cpus.itb.stage2_mmu.stage2_tlb.inst_misses            0                       # ITB inst misses
system.switch_cpus.itb.stage2_mmu.stage2_tlb.misses            0                       # DTB misses
system.switch_cpus.itb.stage2_mmu.stage2_tlb.perms_faults            0                       # Number of TLB faults due to permissions restrictions
system.switch_cpus.itb.stage2_mmu.stage2_tlb.prefetch_faults            0                       # Number of TLB faults due to prefetch
system.switch_cpus.itb.stage2_mmu.stage2_tlb.read_accesses            0                       # DTB read accesses
system.switch_cpus.itb.stage2_mmu.stage2_tlb.read_hits            0                       # DTB read hits
system.switch_cpus.itb.stage2_mmu.stage2_tlb.read_misses            0                       # DTB read misses
system.switch_cpus.itb.stage2_mmu.stage2_tlb.walker.walkRequestOrigin_Requested::Data            0                       # Table walker requests started/completed, data/inst
system.switch_cpus.itb.stage2_mmu.stage2_tlb.walker.walkRequestOrigin_Requested::Inst            0                       # Table walker requests started/completed, data/inst
system.switch_cpus.itb.stage2_mmu.stage2_tlb.walker.walkRequestOrigin_Requested::total            0                       # Table walker requests started/completed, data/inst
system.switch_cpus.itb.stage2_mmu.stage2_tlb.walker.walkRequestOrigin_Completed::Data            0                       # Table walker requests started/completed, data/inst
system.switch_cpus.itb.stage2_mmu.stage2_tlb.walker.walkRequestOrigin_Completed::Inst            0                       # Table walker requests started/completed, data/inst
system.switch_cpus.itb.stage2_mmu.stage2_tlb.walker.walkRequestOrigin_Completed::total            0                       # Table walker requests started/completed, data/inst
system.switch_cpus.itb.stage2_mmu.stage2_tlb.walker.walkRequestOrigin::total            0                       # Table walker requests started/completed, data/inst
system.switch_cpus.itb.stage2_mmu.stage2_tlb.walker.walks            0                       # Table walker walks requested
system.switch_cpus.itb.stage2_mmu.stage2_tlb.write_accesses            0                       # DTB write accesses
system.switch_cpus.itb.stage2_mmu.stage2_tlb.write_hits            0                       # DTB write hits
system.switch_cpus.itb.stage2_mmu.stage2_tlb.write_misses            0                       # DTB write misses
system.switch_cpus.itb.walker.walkRequestOrigin_Requested::Data            0                       # Table walker requests started/completed, data/inst
system.switch_cpus.itb.walker.walkRequestOrigin_Requested::Inst            0                       # Table walker requests started/completed, data/inst
system.switch_cpus.itb.walker.walkRequestOrigin_Requested::total            0                       # Table walker requests started/completed, data/inst
system.switch_cpus.itb.walker.walkRequestOrigin_Completed::Data            0                       # Table walker requests started/completed, data/inst
system.switch_cpus.itb.walker.walkRequestOrigin_Completed::Inst            0                       # Table walker requests started/completed, data/inst
system.switch_cpus.itb.walker.walkRequestOrigin_Completed::total            0                       # Table walker requests started/completed, data/inst
system.switch_cpus.itb.walker.walkRequestOrigin::total            0                       # Table walker requests started/completed, data/inst
system.switch_cpus.itb.walker.walks                 0                       # Table walker walks requested
system.switch_cpus.itb.write_accesses               0                       # DTB write accesses
system.switch_cpus.itb.write_hits                   0                       # DTB write hits
system.switch_cpus.itb.write_misses                 0                       # DTB write misses
system.switch_cpus.not_idle_fraction         0.111537                       # Percentage of non-idle cycles
system.switch_cpus.numCycles                133104474                       # number of cpu cycles simulated
system.switch_cpus.numWorkItemsCompleted            0                       # number of work items this cpu completed
system.switch_cpus.numWorkItemsStarted              0                       # number of work items this cpu started
system.switch_cpus.num_busy_cycles       14846058.100969                       # Number of busy cycles
system.switch_cpus.num_cc_register_reads     24152775                       # number of times the CC registers were read
system.switch_cpus.num_cc_register_writes     21869352                       # number of times the CC registers were written
system.switch_cpus.num_conditional_control_insts      8031342                       # number of instructions that are conditional controls
system.switch_cpus.num_fp_alu_accesses              0                       # Number of float alu accesses
system.switch_cpus.num_fp_insts                     0                       # number of float instructions
system.switch_cpus.num_fp_register_reads            0                       # number of times the floating registers were read
system.switch_cpus.num_fp_register_writes            0                       # number of times the floating registers were written
system.switch_cpus.num_func_calls              769958                       # number of times a function call or return occured
system.switch_cpus.num_idle_cycles       118258415.899031                       # Number of idle cycles
system.switch_cpus.num_int_alu_accesses      46222127                       # Number of integer alu accesses
system.switch_cpus.num_int_insts             46222127                       # number of integer instructions
system.switch_cpus.num_int_register_reads     61000943                       # number of times the integer registers were read
system.switch_cpus.num_int_register_writes     40813063                       # number of times the integer registers were written
system.switch_cpus.num_load_insts             9117263                       # Number of load instructions
system.switch_cpus.num_mem_refs              13078757                       # number of memory refs
system.switch_cpus.num_store_insts            3961494                       # Number of store instructions
system.switch_cpus.num_vec_alu_accesses           307                       # Number of vector alu accesses
system.switch_cpus.num_vec_insts                  307                       # number of vector instructions
system.switch_cpus.num_vec_register_reads          399                       # number of times the vector registers were read
system.switch_cpus.num_vec_register_writes          242                       # number of times the vector registers were written
system.switch_cpus.op_class::No_OpClass            15      0.00%      0.00% # Class of executed instruction
system.switch_cpus.op_class::IntAlu          39894317     74.91%     74.91% # Class of executed instruction
system.switch_cpus.op_class::IntMult           259863      0.49%     75.40% # Class of executed instruction
system.switch_cpus.op_class::IntDiv             25090      0.05%     75.44% # Class of executed instruction
system.switch_cpus.op_class::FloatAdd               0      0.00%     75.44% # Class of executed instruction
system.switch_cpus.op_class::FloatCmp               0      0.00%     75.44% # Class of executed instruction
system.switch_cpus.op_class::FloatCvt               0      0.00%     75.44% # Class of executed instruction
system.switch_cpus.op_class::FloatMult              0      0.00%     75.44% # Class of executed instruction
system.switch_cpus.op_class::FloatMultAcc            0      0.00%     75.44% # Class of executed instruction
system.switch_cpus.op_class::FloatDiv               0      0.00%     75.44% # Class of executed instruction
system.switch_cpus.op_class::FloatMisc              0      0.00%     75.44% # Class of executed instruction
system.switch_cpus.op_class::FloatSqrt              0      0.00%     75.44% # Class of executed instruction
system.switch_cpus.op_class::SimdAdd               31      0.00%     75.44% # Class of executed instruction
system.switch_cpus.op_class::SimdAddAcc             0      0.00%     75.44% # Class of executed instruction
system.switch_cpus.op_class::SimdAlu               61      0.00%     75.44% # Class of executed instruction
system.switch_cpus.op_class::SimdCmp               60      0.00%     75.44% # Class of executed instruction
system.switch_cpus.op_class::SimdCvt                0      0.00%     75.44% # Class of executed instruction
system.switch_cpus.op_class::SimdMisc              46      0.00%     75.44% # Class of executed instruction
system.switch_cpus.op_class::SimdMult               0      0.00%     75.44% # Class of executed instruction
system.switch_cpus.op_class::SimdMultAcc            0      0.00%     75.44% # Class of executed instruction
system.switch_cpus.op_class::SimdShift              0      0.00%     75.44% # Class of executed instruction
system.switch_cpus.op_class::SimdShiftAcc            0      0.00%     75.44% # Class of executed instruction
system.switch_cpus.op_class::SimdDiv                0      0.00%     75.44% # Class of executed instruction
system.switch_cpus.op_class::SimdSqrt               0      0.00%     75.44% # Class of executed instruction
system.switch_cpus.op_class::SimdFloatAdd            0      0.00%     75.44% # Class of executed instruction
system.switch_cpus.op_class::SimdFloatAlu            0      0.00%     75.44% # Class of executed instruction
system.switch_cpus.op_class::SimdFloatCmp            0      0.00%     75.44% # Class of executed instruction
system.switch_cpus.op_class::SimdFloatCvt            0      0.00%     75.44% # Class of executed instruction
system.switch_cpus.op_class::SimdFloatDiv            0      0.00%     75.44% # Class of executed instruction
system.switch_cpus.op_class::SimdFloatMisc            0      0.00%     75.44% # Class of executed instruction
system.switch_cpus.op_class::SimdFloatMult            0      0.00%     75.44% # Class of executed instruction
system.switch_cpus.op_class::SimdFloatMultAcc            0      0.00%     75.44% # Class of executed instruction
system.switch_cpus.op_class::SimdFloatSqrt            0      0.00%     75.44% # Class of executed instruction
system.switch_cpus.op_class::SimdReduceAdd            0      0.00%     75.44% # Class of executed instruction
system.switch_cpus.op_class::SimdReduceAlu            0      0.00%     75.44% # Class of executed instruction
system.switch_cpus.op_class::SimdReduceCmp            0      0.00%     75.44% # Class of executed instruction
system.switch_cpus.op_class::SimdFloatReduceAdd            0      0.00%     75.44% # Class of executed instruction
system.switch_cpus.op_class::SimdFloatReduceCmp            0      0.00%     75.44% # Class of executed instruction
system.switch_cpus.op_class::SimdAes                0      0.00%     75.44% # Class of executed instruction
system.switch_cpus.op_class::SimdAesMix             0      0.00%     75.44% # Class of executed instruction
system.switch_cpus.op_class::SimdSha1Hash            0      0.00%     75.44% # Class of executed instruction
system.switch_cpus.op_class::SimdSha1Hash2            0      0.00%     75.44% # Class of executed instruction
system.switch_cpus.op_class::SimdSha256Hash            0      0.00%     75.44% # Class of executed instruction
system.switch_cpus.op_class::SimdSha256Hash2            0      0.00%     75.44% # Class of executed instruction
system.switch_cpus.op_class::SimdShaSigma2            0      0.00%     75.44% # Class of executed instruction
system.switch_cpus.op_class::SimdShaSigma3            0      0.00%     75.44% # Class of executed instruction
system.switch_cpus.op_class::SimdPredAlu            0      0.00%     75.44% # Class of executed instruction
system.switch_cpus.op_class::MemRead          9117263     17.12%     92.56% # Class of executed instruction
system.switch_cpus.op_class::MemWrite         3961494      7.44%    100.00% # Class of executed instruction
system.switch_cpus.op_class::FloatMemRead            0      0.00%    100.00% # Class of executed instruction
system.switch_cpus.op_class::FloatMemWrite            0      0.00%    100.00% # Class of executed instruction
system.switch_cpus.op_class::IprAccess              0      0.00%    100.00% # Class of executed instruction
system.switch_cpus.op_class::InstPrefetch            0      0.00%    100.00% # Class of executed instruction
system.switch_cpus.op_class::total           53258240                       # Class of executed instruction
system.switch_cpus_1.branchPred.BTBCorrect            0                       # Number of correct BTB predictions (this stat may not work properly.
system.switch_cpus_1.branchPred.BTBHitPct          nan                       # BTB Hit Percentage
system.switch_cpus_1.branchPred.BTBHits             0                       # Number of BTB hits
system.switch_cpus_1.branchPred.BTBLookups            0                       # Number of BTB lookups
system.switch_cpus_1.branchPred.RASInCorrect            0                       # Number of incorrect RAS predictions.
system.switch_cpus_1.branchPred.condIncorrect            0                       # Number of conditional branches incorrect
system.switch_cpus_1.branchPred.condPredicted            0                       # Number of conditional branches predicted
system.switch_cpus_1.branchPred.indirectHits            0                       # Number of indirect target hits.
system.switch_cpus_1.branchPred.indirectLookups            0                       # Number of indirect predictor lookups.
system.switch_cpus_1.branchPred.indirectMisses            0                       # Number of indirect misses.
system.switch_cpus_1.branchPred.lookups             0                       # Number of BP lookups
system.switch_cpus_1.branchPred.loop_predictor.loopPredictorCorrect            0                       # Number of times the loop predictor is the provider and the prediction is correct
system.switch_cpus_1.branchPred.loop_predictor.loopPredictorWrong            0                       # Number of times the loop predictor is the provider and the prediction is wrong
system.switch_cpus_1.branchPred.statistical_corrector.scPredictorCorrect            0                       # Number of time the SC predictor is the provider and the prediction is correct
system.switch_cpus_1.branchPred.statistical_corrector.scPredictorWrong            0                       # Number of time the SC predictor is the provider and the prediction is wrong
system.switch_cpus_1.branchPred.tage.bimodalAltMatchProviderCorrect            0                       # Number of times TAGE Alt Match is the bimodal and it is the provider and the prediction is correct
system.switch_cpus_1.branchPred.tage.bimodalAltMatchProviderWrong            0                       # Number of times TAGE Alt Match is the bimodal and it is the provider and the prediction is wrong
system.switch_cpus_1.branchPred.tage.tageAltMatchProvider::0            0                       # TAGE provider for alt match
system.switch_cpus_1.branchPred.tage.tageAltMatchProvider::1            0                       # TAGE provider for alt match
system.switch_cpus_1.branchPred.tage.tageAltMatchProvider::2            0                       # TAGE provider for alt match
system.switch_cpus_1.branchPred.tage.tageAltMatchProvider::3            0                       # TAGE provider for alt match
system.switch_cpus_1.branchPred.tage.tageAltMatchProvider::4            0                       # TAGE provider for alt match
system.switch_cpus_1.branchPred.tage.tageAltMatchProvider::5            0                       # TAGE provider for alt match
system.switch_cpus_1.branchPred.tage.tageAltMatchProvider::6            0                       # TAGE provider for alt match
system.switch_cpus_1.branchPred.tage.tageAltMatchProvider::7            0                       # TAGE provider for alt match
system.switch_cpus_1.branchPred.tage.tageAltMatchProvider::8            0                       # TAGE provider for alt match
system.switch_cpus_1.branchPred.tage.tageAltMatchProvider::9            0                       # TAGE provider for alt match
system.switch_cpus_1.branchPred.tage.tageAltMatchProvider::10            0                       # TAGE provider for alt match
system.switch_cpus_1.branchPred.tage.tageAltMatchProvider::11            0                       # TAGE provider for alt match
system.switch_cpus_1.branchPred.tage.tageAltMatchProvider::12            0                       # TAGE provider for alt match
system.switch_cpus_1.branchPred.tage.tageAltMatchProvider::13            0                       # TAGE provider for alt match
system.switch_cpus_1.branchPred.tage.tageAltMatchProvider::14            0                       # TAGE provider for alt match
system.switch_cpus_1.branchPred.tage.tageAltMatchProvider::15            0                       # TAGE provider for alt match
system.switch_cpus_1.branchPred.tage.tageAltMatchProvider::16            0                       # TAGE provider for alt match
system.switch_cpus_1.branchPred.tage.tageAltMatchProvider::17            0                       # TAGE provider for alt match
system.switch_cpus_1.branchPred.tage.tageAltMatchProvider::18            0                       # TAGE provider for alt match
system.switch_cpus_1.branchPred.tage.tageAltMatchProvider::19            0                       # TAGE provider for alt match
system.switch_cpus_1.branchPred.tage.tageAltMatchProvider::20            0                       # TAGE provider for alt match
system.switch_cpus_1.branchPred.tage.tageAltMatchProvider::21            0                       # TAGE provider for alt match
system.switch_cpus_1.branchPred.tage.tageAltMatchProvider::22            0                       # TAGE provider for alt match
system.switch_cpus_1.branchPred.tage.tageAltMatchProvider::23            0                       # TAGE provider for alt match
system.switch_cpus_1.branchPred.tage.tageAltMatchProvider::24            0                       # TAGE provider for alt match
system.switch_cpus_1.branchPred.tage.tageAltMatchProvider::25            0                       # TAGE provider for alt match
system.switch_cpus_1.branchPred.tage.tageAltMatchProvider::26            0                       # TAGE provider for alt match
system.switch_cpus_1.branchPred.tage.tageAltMatchProvider::27            0                       # TAGE provider for alt match
system.switch_cpus_1.branchPred.tage.tageAltMatchProvider::28            0                       # TAGE provider for alt match
system.switch_cpus_1.branchPred.tage.tageAltMatchProvider::29            0                       # TAGE provider for alt match
system.switch_cpus_1.branchPred.tage.tageAltMatchProvider::30            0                       # TAGE provider for alt match
system.switch_cpus_1.branchPred.tage.tageAltMatchProviderCorrect            0                       # Number of times TAGE Alt Match is the provider and the prediction is correct
system.switch_cpus_1.branchPred.tage.tageAltMatchProviderWouldHaveHit            0                       # Number of times TAGE Longest Match is the provider, the prediction is wrong and Alt Match prediction was correct
system.switch_cpus_1.branchPred.tage.tageAltMatchProviderWrong            0                       # Number of times TAGE Alt Match is the provider and the prediction is wrong
system.switch_cpus_1.branchPred.tage.tageBimodalProviderCorrect            0                       # Number of times there are no hits on the TAGE tables and the bimodal prediction is correct
system.switch_cpus_1.branchPred.tage.tageBimodalProviderWrong            0                       # Number of times there are no hits on the TAGE tables and the bimodal prediction is wrong
system.switch_cpus_1.branchPred.tage.tageLongestMatchProvider::0            0                       # TAGE provider for longest match
system.switch_cpus_1.branchPred.tage.tageLongestMatchProvider::1            0                       # TAGE provider for longest match
system.switch_cpus_1.branchPred.tage.tageLongestMatchProvider::2            0                       # TAGE provider for longest match
system.switch_cpus_1.branchPred.tage.tageLongestMatchProvider::3            0                       # TAGE provider for longest match
system.switch_cpus_1.branchPred.tage.tageLongestMatchProvider::4            0                       # TAGE provider for longest match
system.switch_cpus_1.branchPred.tage.tageLongestMatchProvider::5            0                       # TAGE provider for longest match
system.switch_cpus_1.branchPred.tage.tageLongestMatchProvider::6            0                       # TAGE provider for longest match
system.switch_cpus_1.branchPred.tage.tageLongestMatchProvider::7            0                       # TAGE provider for longest match
system.switch_cpus_1.branchPred.tage.tageLongestMatchProvider::8            0                       # TAGE provider for longest match
system.switch_cpus_1.branchPred.tage.tageLongestMatchProvider::9            0                       # TAGE provider for longest match
system.switch_cpus_1.branchPred.tage.tageLongestMatchProvider::10            0                       # TAGE provider for longest match
system.switch_cpus_1.branchPred.tage.tageLongestMatchProvider::11            0                       # TAGE provider for longest match
system.switch_cpus_1.branchPred.tage.tageLongestMatchProvider::12            0                       # TAGE provider for longest match
system.switch_cpus_1.branchPred.tage.tageLongestMatchProvider::13            0                       # TAGE provider for longest match
system.switch_cpus_1.branchPred.tage.tageLongestMatchProvider::14            0                       # TAGE provider for longest match
system.switch_cpus_1.branchPred.tage.tageLongestMatchProvider::15            0                       # TAGE provider for longest match
system.switch_cpus_1.branchPred.tage.tageLongestMatchProvider::16            0                       # TAGE provider for longest match
system.switch_cpus_1.branchPred.tage.tageLongestMatchProvider::17            0                       # TAGE provider for longest match
system.switch_cpus_1.branchPred.tage.tageLongestMatchProvider::18            0                       # TAGE provider for longest match
system.switch_cpus_1.branchPred.tage.tageLongestMatchProvider::19            0                       # TAGE provider for longest match
system.switch_cpus_1.branchPred.tage.tageLongestMatchProvider::20            0                       # TAGE provider for longest match
system.switch_cpus_1.branchPred.tage.tageLongestMatchProvider::21            0                       # TAGE provider for longest match
system.switch_cpus_1.branchPred.tage.tageLongestMatchProvider::22            0                       # TAGE provider for longest match
system.switch_cpus_1.branchPred.tage.tageLongestMatchProvider::23            0                       # TAGE provider for longest match
system.switch_cpus_1.branchPred.tage.tageLongestMatchProvider::24            0                       # TAGE provider for longest match
system.switch_cpus_1.branchPred.tage.tageLongestMatchProvider::25            0                       # TAGE provider for longest match
system.switch_cpus_1.branchPred.tage.tageLongestMatchProvider::26            0                       # TAGE provider for longest match
system.switch_cpus_1.branchPred.tage.tageLongestMatchProvider::27            0                       # TAGE provider for longest match
system.switch_cpus_1.branchPred.tage.tageLongestMatchProvider::28            0                       # TAGE provider for longest match
system.switch_cpus_1.branchPred.tage.tageLongestMatchProvider::29            0                       # TAGE provider for longest match
system.switch_cpus_1.branchPred.tage.tageLongestMatchProvider::30            0                       # TAGE provider for longest match
system.switch_cpus_1.branchPred.tage.tageLongestMatchProviderCorrect            0                       # Number of times TAGE Longest Match is the provider and the prediction is correct
system.switch_cpus_1.branchPred.tage.tageLongestMatchProviderWouldHaveHit            0                       # Number of times TAGE Alt Match is the provider, the prediction is wrong and Longest Match prediction was correct
system.switch_cpus_1.branchPred.tage.tageLongestMatchProviderWrong            0                       # Number of times TAGE Longest Match is the provider and the prediction is wrong
system.switch_cpus_1.branchPred.usedRAS             0                       # Number of times the RAS was used to get a target.
system.switch_cpus_1.branchPredindirectMispredicted            0                       # Number of mispredicted indirect branches.
system.switch_cpus_1.commit.amos                    0                       # Number of atomic instructions committed
system.switch_cpus_1.commit.branches                0                       # Number of branches committed
system.switch_cpus_1.commit.bw_lim_events            0                       # number cycles where commit BW limit reached
system.switch_cpus_1.commit.committedInsts            0                       # Number of instructions committed
system.switch_cpus_1.commit.committedOps            0                       # Number of ops (including micro ops) committed
system.switch_cpus_1.commit.committed_per_cycle::samples            0                       # Number of insts commited each cycle
system.switch_cpus_1.commit.committed_per_cycle::mean          nan                       # Number of insts commited each cycle
system.switch_cpus_1.commit.committed_per_cycle::stdev          nan                       # Number of insts commited each cycle
system.switch_cpus_1.commit.committed_per_cycle::underflows            0                       # Number of insts commited each cycle
system.switch_cpus_1.commit.committed_per_cycle::0            0                       # Number of insts commited each cycle
system.switch_cpus_1.commit.committed_per_cycle::1            0                       # Number of insts commited each cycle
system.switch_cpus_1.commit.committed_per_cycle::2            0                       # Number of insts commited each cycle
system.switch_cpus_1.commit.committed_per_cycle::3            0                       # Number of insts commited each cycle
system.switch_cpus_1.commit.committed_per_cycle::4            0                       # Number of insts commited each cycle
system.switch_cpus_1.commit.committed_per_cycle::5            0                       # Number of insts commited each cycle
system.switch_cpus_1.commit.committed_per_cycle::6            0                       # Number of insts commited each cycle
system.switch_cpus_1.commit.committed_per_cycle::7            0                       # Number of insts commited each cycle
system.switch_cpus_1.commit.committed_per_cycle::8            0                       # Number of insts commited each cycle
system.switch_cpus_1.commit.committed_per_cycle::overflows            0                       # Number of insts commited each cycle
system.switch_cpus_1.commit.committed_per_cycle::min_value            0                       # Number of insts commited each cycle
system.switch_cpus_1.commit.committed_per_cycle::max_value            0                       # Number of insts commited each cycle
system.switch_cpus_1.commit.committed_per_cycle::total            0                       # Number of insts commited each cycle
system.switch_cpus_1.commit.fp_insts                0                       # Number of committed floating point instructions.
system.switch_cpus_1.commit.function_calls            0                       # Number of function calls committed.
system.switch_cpus_1.commit.int_insts               0                       # Number of committed integer instructions.
system.switch_cpus_1.commit.loads                   0                       # Number of loads committed
system.switch_cpus_1.commit.membars                 0                       # Number of memory barriers committed
system.switch_cpus_1.commit.op_class_0::No_OpClass            0                       # Class of committed instruction
system.switch_cpus_1.commit.op_class_0::IntAlu            0                       # Class of committed instruction
system.switch_cpus_1.commit.op_class_0::IntMult            0                       # Class of committed instruction
system.switch_cpus_1.commit.op_class_0::IntDiv            0                       # Class of committed instruction
system.switch_cpus_1.commit.op_class_0::FloatAdd            0                       # Class of committed instruction
system.switch_cpus_1.commit.op_class_0::FloatCmp            0                       # Class of committed instruction
system.switch_cpus_1.commit.op_class_0::FloatCvt            0                       # Class of committed instruction
system.switch_cpus_1.commit.op_class_0::FloatMult            0                       # Class of committed instruction
system.switch_cpus_1.commit.op_class_0::FloatMultAcc            0                       # Class of committed instruction
system.switch_cpus_1.commit.op_class_0::FloatDiv            0                       # Class of committed instruction
system.switch_cpus_1.commit.op_class_0::FloatMisc            0                       # Class of committed instruction
system.switch_cpus_1.commit.op_class_0::FloatSqrt            0                       # Class of committed instruction
system.switch_cpus_1.commit.op_class_0::SimdAdd            0                       # Class of committed instruction
system.switch_cpus_1.commit.op_class_0::SimdAddAcc            0                       # Class of committed instruction
system.switch_cpus_1.commit.op_class_0::SimdAlu            0                       # Class of committed instruction
system.switch_cpus_1.commit.op_class_0::SimdCmp            0                       # Class of committed instruction
system.switch_cpus_1.commit.op_class_0::SimdCvt            0                       # Class of committed instruction
system.switch_cpus_1.commit.op_class_0::SimdMisc            0                       # Class of committed instruction
system.switch_cpus_1.commit.op_class_0::SimdMult            0                       # Class of committed instruction
system.switch_cpus_1.commit.op_class_0::SimdMultAcc            0                       # Class of committed instruction
system.switch_cpus_1.commit.op_class_0::SimdShift            0                       # Class of committed instruction
system.switch_cpus_1.commit.op_class_0::SimdShiftAcc            0                       # Class of committed instruction
system.switch_cpus_1.commit.op_class_0::SimdDiv            0                       # Class of committed instruction
system.switch_cpus_1.commit.op_class_0::SimdSqrt            0                       # Class of committed instruction
system.switch_cpus_1.commit.op_class_0::SimdFloatAdd            0                       # Class of committed instruction
system.switch_cpus_1.commit.op_class_0::SimdFloatAlu            0                       # Class of committed instruction
system.switch_cpus_1.commit.op_class_0::SimdFloatCmp            0                       # Class of committed instruction
system.switch_cpus_1.commit.op_class_0::SimdFloatCvt            0                       # Class of committed instruction
system.switch_cpus_1.commit.op_class_0::SimdFloatDiv            0                       # Class of committed instruction
system.switch_cpus_1.commit.op_class_0::SimdFloatMisc            0                       # Class of committed instruction
system.switch_cpus_1.commit.op_class_0::SimdFloatMult            0                       # Class of committed instruction
system.switch_cpus_1.commit.op_class_0::SimdFloatMultAcc            0                       # Class of committed instruction
system.switch_cpus_1.commit.op_class_0::SimdFloatSqrt            0                       # Class of committed instruction
system.switch_cpus_1.commit.op_class_0::SimdReduceAdd            0                       # Class of committed instruction
system.switch_cpus_1.commit.op_class_0::SimdReduceAlu            0                       # Class of committed instruction
system.switch_cpus_1.commit.op_class_0::SimdReduceCmp            0                       # Class of committed instruction
system.switch_cpus_1.commit.op_class_0::SimdFloatReduceAdd            0                       # Class of committed instruction
system.switch_cpus_1.commit.op_class_0::SimdFloatReduceCmp            0                       # Class of committed instruction
system.switch_cpus_1.commit.op_class_0::SimdAes            0                       # Class of committed instruction
system.switch_cpus_1.commit.op_class_0::SimdAesMix            0                       # Class of committed instruction
system.switch_cpus_1.commit.op_class_0::SimdSha1Hash            0                       # Class of committed instruction
system.switch_cpus_1.commit.op_class_0::SimdSha1Hash2            0                       # Class of committed instruction
system.switch_cpus_1.commit.op_class_0::SimdSha256Hash            0                       # Class of committed instruction
system.switch_cpus_1.commit.op_class_0::SimdSha256Hash2            0                       # Class of committed instruction
system.switch_cpus_1.commit.op_class_0::SimdShaSigma2            0                       # Class of committed instruction
system.switch_cpus_1.commit.op_class_0::SimdShaSigma3            0                       # Class of committed instruction
system.switch_cpus_1.commit.op_class_0::SimdPredAlu            0                       # Class of committed instruction
system.switch_cpus_1.commit.op_class_0::MemRead            0                       # Class of committed instruction
system.switch_cpus_1.commit.op_class_0::MemWrite            0                       # Class of committed instruction
system.switch_cpus_1.commit.op_class_0::FloatMemRead            0                       # Class of committed instruction
system.switch_cpus_1.commit.op_class_0::FloatMemWrite            0                       # Class of committed instruction
system.switch_cpus_1.commit.op_class_0::IprAccess            0                       # Class of committed instruction
system.switch_cpus_1.commit.op_class_0::InstPrefetch            0                       # Class of committed instruction
system.switch_cpus_1.commit.op_class_0::total            0                       # Class of committed instruction
system.switch_cpus_1.commit.refs                    0                       # Number of memory references committed
system.switch_cpus_1.commit.swp_count               0                       # Number of s/w prefetches committed
system.switch_cpus_1.commit.vec_insts               0                       # Number of committed Vector instructions.
system.switch_cpus_1.committedInsts                 0                       # Number of Instructions Simulated
system.switch_cpus_1.committedOps                   0                       # Number of Ops (including micro ops) Simulated
system.switch_cpus_1.cpi                          nan                       # CPI: Cycles Per Instruction
system.switch_cpus_1.cpi_total                    nan                       # CPI: Total CPI of All Threads
system.switch_cpus_1.dtb.accesses                   0                       # DTB accesses
system.switch_cpus_1.dtb.align_faults               0                       # Number of TLB faults due to alignment restrictions
system.switch_cpus_1.dtb.domain_faults              0                       # Number of TLB faults due to domain restrictions
system.switch_cpus_1.dtb.flush_entries              0                       # Number of entries that have been flushed from TLB
system.switch_cpus_1.dtb.flush_tlb                  0                       # Number of times complete TLB was flushed
system.switch_cpus_1.dtb.flush_tlb_asid             0                       # Number of times TLB was flushed by ASID
system.switch_cpus_1.dtb.flush_tlb_mva              0                       # Number of times TLB was flushed by MVA
system.switch_cpus_1.dtb.flush_tlb_mva_asid            0                       # Number of times TLB was flushed by MVA & ASID
system.switch_cpus_1.dtb.hits                       0                       # DTB hits
system.switch_cpus_1.dtb.inst_accesses              0                       # ITB inst accesses
system.switch_cpus_1.dtb.inst_hits                  0                       # ITB inst hits
system.switch_cpus_1.dtb.inst_misses                0                       # ITB inst misses
system.switch_cpus_1.dtb.misses                     0                       # DTB misses
system.switch_cpus_1.dtb.perms_faults               0                       # Number of TLB faults due to permissions restrictions
system.switch_cpus_1.dtb.prefetch_faults            0                       # Number of TLB faults due to prefetch
system.switch_cpus_1.dtb.read_accesses              0                       # DTB read accesses
system.switch_cpus_1.dtb.read_hits                  0                       # DTB read hits
system.switch_cpus_1.dtb.read_misses                0                       # DTB read misses
system.switch_cpus_1.dtb.stage2_mmu.stage2_tlb.accesses            0                       # DTB accesses
system.switch_cpus_1.dtb.stage2_mmu.stage2_tlb.align_faults            0                       # Number of TLB faults due to alignment restrictions
system.switch_cpus_1.dtb.stage2_mmu.stage2_tlb.domain_faults            0                       # Number of TLB faults due to domain restrictions
system.switch_cpus_1.dtb.stage2_mmu.stage2_tlb.flush_entries            0                       # Number of entries that have been flushed from TLB
system.switch_cpus_1.dtb.stage2_mmu.stage2_tlb.flush_tlb            0                       # Number of times complete TLB was flushed
system.switch_cpus_1.dtb.stage2_mmu.stage2_tlb.flush_tlb_asid            0                       # Number of times TLB was flushed by ASID
system.switch_cpus_1.dtb.stage2_mmu.stage2_tlb.flush_tlb_mva            0                       # Number of times TLB was flushed by MVA
system.switch_cpus_1.dtb.stage2_mmu.stage2_tlb.flush_tlb_mva_asid            0                       # Number of times TLB was flushed by MVA & ASID
system.switch_cpus_1.dtb.stage2_mmu.stage2_tlb.hits            0                       # DTB hits
system.switch_cpus_1.dtb.stage2_mmu.stage2_tlb.inst_accesses            0                       # ITB inst accesses
system.switch_cpus_1.dtb.stage2_mmu.stage2_tlb.inst_hits            0                       # ITB inst hits
system.switch_cpus_1.dtb.stage2_mmu.stage2_tlb.inst_misses            0                       # ITB inst misses
system.switch_cpus_1.dtb.stage2_mmu.stage2_tlb.misses            0                       # DTB misses
system.switch_cpus_1.dtb.stage2_mmu.stage2_tlb.perms_faults            0                       # Number of TLB faults due to permissions restrictions
system.switch_cpus_1.dtb.stage2_mmu.stage2_tlb.prefetch_faults            0                       # Number of TLB faults due to prefetch
system.switch_cpus_1.dtb.stage2_mmu.stage2_tlb.read_accesses            0                       # DTB read accesses
system.switch_cpus_1.dtb.stage2_mmu.stage2_tlb.read_hits            0                       # DTB read hits
system.switch_cpus_1.dtb.stage2_mmu.stage2_tlb.read_misses            0                       # DTB read misses
system.switch_cpus_1.dtb.stage2_mmu.stage2_tlb.walker.walkRequestOrigin_Requested::Data            0                       # Table walker requests started/completed, data/inst
system.switch_cpus_1.dtb.stage2_mmu.stage2_tlb.walker.walkRequestOrigin_Requested::Inst            0                       # Table walker requests started/completed, data/inst
system.switch_cpus_1.dtb.stage2_mmu.stage2_tlb.walker.walkRequestOrigin_Requested::total            0                       # Table walker requests started/completed, data/inst
system.switch_cpus_1.dtb.stage2_mmu.stage2_tlb.walker.walkRequestOrigin_Completed::Data            0                       # Table walker requests started/completed, data/inst
system.switch_cpus_1.dtb.stage2_mmu.stage2_tlb.walker.walkRequestOrigin_Completed::Inst            0                       # Table walker requests started/completed, data/inst
system.switch_cpus_1.dtb.stage2_mmu.stage2_tlb.walker.walkRequestOrigin_Completed::total            0                       # Table walker requests started/completed, data/inst
system.switch_cpus_1.dtb.stage2_mmu.stage2_tlb.walker.walkRequestOrigin::total            0                       # Table walker requests started/completed, data/inst
system.switch_cpus_1.dtb.stage2_mmu.stage2_tlb.walker.walks            0                       # Table walker walks requested
system.switch_cpus_1.dtb.stage2_mmu.stage2_tlb.write_accesses            0                       # DTB write accesses
system.switch_cpus_1.dtb.stage2_mmu.stage2_tlb.write_hits            0                       # DTB write hits
system.switch_cpus_1.dtb.stage2_mmu.stage2_tlb.write_misses            0                       # DTB write misses
system.switch_cpus_1.dtb.walker.walkRequestOrigin_Requested::Data            0                       # Table walker requests started/completed, data/inst
system.switch_cpus_1.dtb.walker.walkRequestOrigin_Requested::Inst            0                       # Table walker requests started/completed, data/inst
system.switch_cpus_1.dtb.walker.walkRequestOrigin_Requested::total            0                       # Table walker requests started/completed, data/inst
system.switch_cpus_1.dtb.walker.walkRequestOrigin_Completed::Data            0                       # Table walker requests started/completed, data/inst
system.switch_cpus_1.dtb.walker.walkRequestOrigin_Completed::Inst            0                       # Table walker requests started/completed, data/inst
system.switch_cpus_1.dtb.walker.walkRequestOrigin_Completed::total            0                       # Table walker requests started/completed, data/inst
system.switch_cpus_1.dtb.walker.walkRequestOrigin::total            0                       # Table walker requests started/completed, data/inst
system.switch_cpus_1.dtb.walker.walks               0                       # Table walker walks requested
system.switch_cpus_1.dtb.write_accesses             0                       # DTB write accesses
system.switch_cpus_1.dtb.write_hits                 0                       # DTB write hits
system.switch_cpus_1.dtb.write_misses               0                       # DTB write misses
system.switch_cpus_1.fetch.branchRate             nan                       # Number of branch fetches per cycle
system.switch_cpus_1.fetch.idleRate               nan                       # Percent of cycles fetch was idle
system.switch_cpus_1.fetch.rate                   nan                       # Number of inst fetches per cycle
[...]
system.cpu.dtb.stage2_mmu.stage2_tlb.walker.power_state.pwrStateResidencyTicks::UNDEFINED 596683674500                       # Cumulative time (in ticks) in various power states
system.cpu.itb.walker.power_state.pwrStateResidencyTicks::UNDEFINED 596683674500                       # Cumulative time (in ticks) in various power states
system.cpu.itb.stage2_mmu.stage2_tlb.walker.power_state.pwrStateResidencyTicks::UNDEFINED 596683674500                       # Cumulative time (in ticks) in various power states
system.cpu.dcache.demand_hits::.cpu.data    249196423                       # number of demand (read+write) hits
system.cpu.dcache.demand_hits::.switch_cpus.data     12961627                       # number of demand (read+write) hits
system.cpu.dcache.demand_hits::total        262158050                       # number of demand (read+write) hits
system.cpu.dcache.overall_hits::.cpu.data    249196440                       # number of overall hits
system.cpu.dcache.overall_hits::.switch_cpus.data     12961627                       # number of overall hits
system.cpu.dcache.overall_hits::total       262158067                       # number of overall hits
system.cpu.dcache.demand_misses::.cpu.data     11117481                       # number of demand (read+write) misses
system.cpu.dcache.demand_misses::.switch_cpus.data       139834                       # number of demand (read+write) misses
system.cpu.dcache.demand_misses::total       11257315                       # number of demand (read+write) misses
system.cpu.dcache.overall_misses::.cpu.data     11117484                       # number of overall misses
system.cpu.dcache.overall_misses::.switch_cpus.data       139834                       # number of overall misses
system.cpu.dcache.overall_misses::total      11257318                       # number of overall misses
system.cpu.dcache.demand_miss_latency::.switch_cpus.data   2908724500                       # number of demand (read+write) miss cycles
system.cpu.dcache.demand_miss_latency::total   2908724500                       # number of demand (read+write) miss cycles
system.cpu.dcache.overall_miss_latency::.switch_cpus.data   2908724500                       # number of overall miss cycles
system.cpu.dcache.overall_miss_latency::total   2908724500                       # number of overall miss cycles
system.cpu.dcache.demand_accesses::.cpu.data    260313904                       # number of demand (read+write) accesses
system.cpu.dcache.demand_accesses::.switch_cpus.data     13101461                       # number of demand (read+write) accesses
system.cpu.dcache.demand_accesses::total    273415365                       # number of demand (read+write) accesses
system.cpu.dcache.overall_accesses::.cpu.data    260313924                       # number of overall (read+write) accesses
system.cpu.dcache.overall_accesses::.switch_cpus.data     13101461                       # number of overall (read+write) accesses
system.cpu.dcache.overall_accesses::total    273415385                       # number of overall (read+write) accesses
system.cpu.dcache.demand_miss_rate::.cpu.data     0.042708                       # miss rate for demand accesses
system.cpu.dcache.demand_miss_rate::.switch_cpus.data     0.010673                       # miss rate for demand accesses
system.cpu.dcache.demand_miss_rate::total     0.041173                       # miss rate for demand accesses
system.cpu.dcache.overall_miss_rate::.cpu.data     0.042708                       # miss rate for overall accesses
system.cpu.dcache.overall_miss_rate::.switch_cpus.data     0.010673                       # miss rate for overall accesses
system.cpu.dcache.overall_miss_rate::total     0.041173                       # miss rate for overall accesses
system.cpu.dcache.demand_avg_miss_latency::.switch_cpus.data 20801.267932                       # average overall miss latency
system.cpu.dcache.demand_avg_miss_latency::total   258.385281                       # average overall miss latency
system.cpu.dcache.overall_avg_miss_latency::.switch_cpus.data 20801.267932                       # average overall miss latency
system.cpu.dcache.overall_avg_miss_latency::total   258.385212                       # average overall miss latency
system.cpu.dcache.blocked_cycles::no_mshrs            0                       # number of cycles access was blocked
system.cpu.dcache.blocked_cycles::no_targets            0                       # number of cycles access was blocked
system.cpu.dcache.blocked::no_mshrs                 0                       # number of cycles access was blocked
system.cpu.dcache.blocked::no_targets               0                       # number of cycles access was blocked
system.cpu.dcache.avg_blocked_cycles::no_mshrs          nan                       # average number of cycles each access was blocked
system.cpu.dcache.avg_blocked_cycles::no_targets          nan                       # average number of cycles each access was blocked
system.cpu.dcache.writebacks::.writebacks     10356193                       # number of writebacks
system.cpu.dcache.writebacks::total          10356193                       # number of writebacks
system.cpu.dcache.demand_mshr_misses::.switch_cpus.data       139834                       # number of demand (read+write) MSHR misses
system.cpu.dcache.demand_mshr_misses::total       139834                       # number of demand (read+write) MSHR misses
system.cpu.dcache.overall_mshr_misses::.switch_cpus.data       139834                       # number of overall MSHR misses
system.cpu.dcache.overall_mshr_misses::total       139834                       # number of overall MSHR misses
system.cpu.dcache.demand_mshr_miss_latency::.switch_cpus.data   2768890500                       # number of demand (read+write) MSHR miss cycles
system.cpu.dcache.demand_mshr_miss_latency::total   2768890500                       # number of demand (read+write) MSHR miss cycles
system.cpu.dcache.overall_mshr_miss_latency::.switch_cpus.data   2768890500                       # number of overall MSHR miss cycles
system.cpu.dcache.overall_mshr_miss_latency::total   2768890500                       # number of overall MSHR miss cycles
system.cpu.dcache.demand_mshr_miss_rate::.switch_cpus.data     0.010673                       # mshr miss rate for demand accesses
system.cpu.dcache.demand_mshr_miss_rate::total     0.000511                       # mshr miss rate for demand accesses
system.cpu.dcache.overall_mshr_miss_rate::.switch_cpus.data     0.010673                       # mshr miss rate for overall accesses
system.cpu.dcache.overall_mshr_miss_rate::total     0.000511                       # mshr miss rate for overall accesses
system.cpu.dcache.demand_avg_mshr_miss_latency::.switch_cpus.data 19801.267932                       # average overall mshr miss latency
system.cpu.dcache.demand_avg_mshr_miss_latency::total 19801.267932                       # average overall mshr miss latency
system.cpu.dcache.overall_avg_mshr_miss_latency::.switch_cpus.data 19801.267932                       # average overall mshr miss latency
system.cpu.dcache.overall_avg_mshr_miss_latency::total 19801.267932                       # average overall mshr miss latency
system.cpu.dcache.replacements               11256807                       # number of replacements
system.cpu.dcache.ReadReq_hits::.cpu.data    175529133                       # number of ReadReq hits
system.cpu.dcache.ReadReq_hits::.switch_cpus.data      9048964                       # number of ReadReq hits
system.cpu.dcache.ReadReq_hits::total       184578097                       # number of ReadReq hits
system.cpu.dcache.ReadReq_misses::.cpu.data      1657128                       # number of ReadReq misses
system.cpu.dcache.ReadReq_misses::.switch_cpus.data        81897                       # number of ReadReq misses
system.cpu.dcache.ReadReq_misses::total       1739025                       # number of ReadReq misses
system.cpu.dcache.ReadReq_miss_latency::.switch_cpus.data   2061714000                       # number of ReadReq miss cycles
system.cpu.dcache.ReadReq_miss_latency::total   2061714000                       # number of ReadReq miss cycles
system.cpu.dcache.ReadReq_accesses::.cpu.data    177186261                       # number of ReadReq accesses(hits+misses)
system.cpu.dcache.ReadReq_accesses::.switch_cpus.data      9130861                       # number of ReadReq accesses(hits+misses)
system.cpu.dcache.ReadReq_accesses::total    186317122                       # number of ReadReq accesses(hits+misses)
system.cpu.dcache.ReadReq_miss_rate::.cpu.data     0.009352                       # miss rate for ReadReq accesses
system.cpu.dcache.ReadReq_miss_rate::.switch_cpus.data     0.008969                       # miss rate for ReadReq accesses
system.cpu.dcache.ReadReq_miss_rate::total     0.009334                       # miss rate for ReadReq accesses
system.cpu.dcache.ReadReq_avg_miss_latency::.switch_cpus.data 25174.475256                       # average ReadReq miss latency
system.cpu.dcache.ReadReq_avg_miss_latency::total  1185.557424                       # average ReadReq miss latency
system.cpu.dcache.ReadReq_mshr_misses::.switch_cpus.data        81897                       # number of ReadReq MSHR misses
system.cpu.dcache.ReadReq_mshr_misses::total        81897                       # number of ReadReq MSHR misses
system.cpu.dcache.ReadReq_mshr_miss_latency::.switch_cpus.data   1979817000                       # number of ReadReq MSHR miss cycles
system.cpu.dcache.ReadReq_mshr_miss_latency::total   1979817000                       # number of ReadReq MSHR miss cycles
system.cpu.dcache.ReadReq_mshr_miss_rate::.switch_cpus.data     0.008969                       # mshr miss rate for ReadReq accesses
system.cpu.dcache.ReadReq_mshr_miss_rate::total     0.000440                       # mshr miss rate for ReadReq accesses
system.cpu.dcache.ReadReq_avg_mshr_miss_latency::.switch_cpus.data 24174.475256                       # average ReadReq mshr miss latency
system.cpu.dcache.ReadReq_avg_mshr_miss_latency::total 24174.475256                       # average ReadReq mshr miss latency
system.cpu.dcache.WriteReq_hits::.cpu.data     73667284                       # number of WriteReq hits
system.cpu.dcache.WriteReq_hits::.switch_cpus.data      3912663                       # number of WriteReq hits
system.cpu.dcache.WriteReq_hits::total       77579947                       # number of WriteReq hits
system.cpu.dcache.WriteReq_misses::.cpu.data      1208640                       # number of WriteReq misses
system.cpu.dcache.WriteReq_misses::.switch_cpus.data        57937                       # number of WriteReq misses
system.cpu.dcache.WriteReq_misses::total      1266577                       # number of WriteReq misses
system.cpu.dcache.WriteReq_miss_latency::.switch_cpus.data    847010500                       # number of WriteReq miss cycles
system.cpu.dcache.WriteReq_miss_latency::total    847010500                       # number of WriteReq miss cycles
system.cpu.dcache.WriteReq_accesses::.cpu.data     74875924                       # number of WriteReq accesses(hits+misses)
system.cpu.dcache.WriteReq_accesses::.switch_cpus.data      3970600                       # number of WriteReq accesses(hits+misses)
system.cpu.dcache.WriteReq_accesses::total     78846524                       # number of WriteReq accesses(hits+misses)
system.cpu.dcache.WriteReq_miss_rate::.cpu.data     0.016142                       # miss rate for WriteReq accesses
system.cpu.dcache.WriteReq_miss_rate::.switch_cpus.data     0.014591                       # miss rate for WriteReq accesses
system.cpu.dcache.WriteReq_miss_rate::total     0.016064                       # miss rate for WriteReq accesses
system.cpu.dcache.WriteReq_avg_miss_latency::.switch_cpus.data 14619.509122                       # average WriteReq miss latency
system.cpu.dcache.WriteReq_avg_miss_latency::total   668.739840                       # average WriteReq miss latency
system.cpu.dcache.WriteReq_mshr_misses::.switch_cpus.data        57937                       # number of WriteReq MSHR misses
system.cpu.dcache.WriteReq_mshr_misses::total        57937                       # number of WriteReq MSHR misses
system.cpu.dcache.WriteReq_mshr_miss_latency::.switch_cpus.data    789073500                       # number of WriteReq MSHR miss cycles
system.cpu.dcache.WriteReq_mshr_miss_latency::total    789073500                       # number of WriteReq MSHR miss cycles
system.cpu.dcache.WriteReq_mshr_miss_rate::.switch_cpus.data     0.014591                       # mshr miss rate for WriteReq accesses
system.cpu.dcache.WriteReq_mshr_miss_rate::total     0.000735                       # mshr miss rate for WriteReq accesses
system.cpu.dcache.WriteReq_avg_mshr_miss_latency::.switch_cpus.data 13619.509122                       # average WriteReq mshr miss latency
system.cpu.dcache.WriteReq_avg_mshr_miss_latency::total 13619.509122                       # average WriteReq mshr miss latency
system.cpu.dcache.SoftPFReq_hits::.cpu.data           17                       # number of SoftPFReq hits
system.cpu.dcache.SoftPFReq_hits::total            17                       # number of SoftPFReq hits
system.cpu.dcache.SoftPFReq_misses::.cpu.data            3                       # number of SoftPFReq misses
system.cpu.dcache.SoftPFReq_misses::total            3                       # number of SoftPFReq misses
system.cpu.dcache.SoftPFReq_accesses::.cpu.data           20                       # number of SoftPFReq accesses(hits+misses)
system.cpu.dcache.SoftPFReq_accesses::total           20                       # number of SoftPFReq accesses(hits+misses)
system.cpu.dcache.SoftPFReq_miss_rate::.cpu.data     0.150000                       # miss rate for SoftPFReq accesses
system.cpu.dcache.SoftPFReq_miss_rate::total     0.150000                       # miss rate for SoftPFReq accesses
system.cpu.dcache.WriteLineReq_hits::.cpu.data            6                       # number of WriteLineReq hits
system.cpu.dcache.WriteLineReq_hits::total            6                       # number of WriteLineReq hits
system.cpu.dcache.WriteLineReq_misses::.cpu.data      8251713                       # number of WriteLineReq misses
system.cpu.dcache.WriteLineReq_misses::total      8251713                       # number of WriteLineReq misses
system.cpu.dcache.WriteLineReq_accesses::.cpu.data      8251719                       # number of WriteLineReq accesses(hits+misses)
system.cpu.dcache.WriteLineReq_accesses::total      8251719                       # number of WriteLineReq accesses(hits+misses)
system.cpu.dcache.WriteLineReq_miss_rate::.cpu.data     0.999999                       # miss rate for WriteLineReq accesses
system.cpu.dcache.WriteLineReq_miss_rate::total     0.999999                       # miss rate for WriteLineReq accesses
system.cpu.dcache.LoadLockedReq_hits::.cpu.data          389                       # number of LoadLockedReq hits
system.cpu.dcache.LoadLockedReq_hits::.switch_cpus.data            6                       # number of LoadLockedReq hits
system.cpu.dcache.LoadLockedReq_hits::total          395                       # number of LoadLockedReq hits
system.cpu.dcache.LoadLockedReq_misses::.cpu.data            1                       # number of LoadLockedReq misses
system.cpu.dcache.LoadLockedReq_misses::total            1                       # number of LoadLockedReq misses
system.cpu.dcache.LoadLockedReq_accesses::.cpu.data          390                       # number of LoadLockedReq accesses(hits+misses)
system.cpu.dcache.LoadLockedReq_accesses::.switch_cpus.data            6                       # number of LoadLockedReq accesses(hits+misses)
system.cpu.dcache.LoadLockedReq_accesses::total          396                       # number of LoadLockedReq accesses(hits+misses)
system.cpu.dcache.LoadLockedReq_miss_rate::.cpu.data     0.002564                       # miss rate for LoadLockedReq accesses
system.cpu.dcache.LoadLockedReq_miss_rate::total     0.002525                       # miss rate for LoadLockedReq accesses
system.cpu.dcache.StoreCondReq_hits::.cpu.data          390                       # number of StoreCondReq hits
system.cpu.dcache.StoreCondReq_hits::.switch_cpus.data            6                       # number of StoreCondReq hits
system.cpu.dcache.StoreCondReq_hits::total          396                       # number of StoreCondReq hits
system.cpu.dcache.StoreCondReq_accesses::.cpu.data          390                       # number of StoreCondReq accesses(hits+misses)
system.cpu.dcache.StoreCondReq_accesses::.switch_cpus.data            6                       # number of StoreCondReq accesses(hits+misses)
system.cpu.dcache.StoreCondReq_accesses::total          396                       # number of StoreCondReq accesses(hits+misses)
system.cpu.dcache.power_state.pwrStateResidencyTicks::UNDEFINED 596683674500                       # Cumulative time (in ticks) in various power states
system.cpu.dcache.tags.tagsinuse           511.991731                       # Cycle average of tags in use
system.cpu.dcache.tags.total_refs           273416177                       # Total number of references to valid blocks.
system.cpu.dcache.tags.sampled_refs          11257319                       # Sample count of references to valid blocks.
system.cpu.dcache.tags.avg_refs             24.287859                       # Average number of references to valid blocks.
system.cpu.dcache.tags.warmup_cycle              1500                       # Cycle when the warmup percentage was hit.
system.cpu.dcache.tags.occ_blocks::.cpu.data   456.025146                       # Average occupied blocks per requestor
system.cpu.dcache.tags.occ_blocks::.switch_cpus.data    55.966585                       # Average occupied blocks per requestor
system.cpu.dcache.tags.occ_percent::.cpu.data     0.890674                       # Average percentage of cache occupancy
system.cpu.dcache.tags.occ_percent::.switch_cpus.data     0.109310                       # Average percentage of cache occupancy
system.cpu.dcache.tags.occ_percent::total     0.999984                       # Average percentage of cache occupancy
system.cpu.dcache.tags.occ_task_id_blocks::1024          512                       # Occupied blocks per task id
system.cpu.dcache.tags.age_task_id_blocks_1024::0           43                       # Occupied blocks per task id
system.cpu.dcache.tags.age_task_id_blocks_1024::1           42                       # Occupied blocks per task id
system.cpu.dcache.tags.age_task_id_blocks_1024::2          188                       # Occupied blocks per task id
system.cpu.dcache.tags.age_task_id_blocks_1024::3          235                       # Occupied blocks per task id
system.cpu.dcache.tags.age_task_id_blocks_1024::4            4                       # Occupied blocks per task id
system.cpu.dcache.tags.occ_task_id_percent::1024            1                       # Percentage of cache occupancy per task id
system.cpu.dcache.tags.tag_accesses         558089673                       # Number of tag accesses
system.cpu.dcache.tags.data_accesses        558089673                       # Number of data accesses
system.cpu.dcache.tags.power_state.pwrStateResidencyTicks::UNDEFINED 596683674500                       # Cumulative time (in ticks) in various power states
system.cpu.power_state.numTransitions               2                       # Number of power state transitions
system.cpu.power_state.pwrStateResidencyTicks::ON 530131437500                       # Cumulative time (in ticks) in various power states
system.cpu.power_state.pwrStateResidencyTicks::OFF  66552237000                       # Cumulative time (in ticks) in various power states

---------- End Simulation Statistics   ----------
