
---------- Begin Simulation Statistics ----------
final_tick                                 1084939500                       # Number of ticks from beginning of simulation (restored from checkpoints and never reset)
host_inst_rate                                  56872                       # Simulator instruction rate (inst/s)
host_mem_usage                                 858148                       # Number of bytes of host memory used
host_op_rate                                    60011                       # Simulator op (including micro ops) rate (op/s)
host_seconds                                    74.35                       # Real time elapsed on the host
host_tick_rate                               14591958                       # Simulator tick rate (ticks/s)
sim_freq                                 1000000000000                       # Frequency of simulated ticks
sim_insts                                     4228395                       # Number of instructions simulated
sim_ops                                       4461863                       # Number of ops (including micro ops) simulated
sim_seconds                                  0.001085                       # Number of seconds simulated
sim_ticks                                  1084939500                       # Number of ticks simulated
system.cpu.branchPred.BTBCorrect                    0                       # Number of correct BTB predictions (this stat may not work properly.
system.cpu.branchPred.BTBHitPct             99.137162                       # BTB Hit Percentage
system.cpu.branchPred.BTBHits                  336877                       # Number of BTB hits
system.cpu.branchPred.BTBLookups               339809                       # Number of BTB lookups
system.cpu.branchPred.RASInCorrect                  2                       # Number of incorrect RAS predictions.
system.cpu.branchPred.condIncorrect              4644                       # Number of conditional branches incorrect
system.cpu.branchPred.condPredicted            381641                       # Number of conditional branches predicted
system.cpu.branchPred.indirectHits               1190                       # Number of indirect target hits.
system.cpu.branchPred.indirectLookups            2135                       # Number of indirect predictor lookups.
system.cpu.branchPred.indirectMisses              945                       # Number of indirect misses.
system.cpu.branchPred.lookups                  520783                       # Number of BP lookups
system.cpu.branchPred.loop_predictor.loopPredictorCorrect           72                       # Number of times the loop predictor is the provider and the prediction is correct
system.cpu.branchPred.loop_predictor.loopPredictorWrong           12                       # Number of times the loop predictor is the provider and the prediction is wrong
system.cpu.branchPred.statistical_corrector.scPredictorCorrect          276                       # Number of time the SC predictor is the provider and the prediction is correct
system.cpu.branchPred.statistical_corrector.scPredictorWrong          389                       # Number of time the SC predictor is the provider and the prediction is wrong
system.cpu.branchPred.tage.bimodalAltMatchProviderCorrect          356                       # Number of times TAGE Alt Match is the bimodal and it is the provider and the prediction is correct
system.cpu.branchPred.tage.bimodalAltMatchProviderWrong           92                       # Number of times TAGE Alt Match is the bimodal and it is the provider and the prediction is wrong
system.cpu.branchPred.tage.tageAltMatchProvider::0         2056                       # TAGE provider for alt match
system.cpu.branchPred.tage.tageAltMatchProvider::1            0                       # TAGE provider for alt match
system.cpu.branchPred.tage.tageAltMatchProvider::2         1063                       # TAGE provider for alt match
system.cpu.branchPred.tage.tageAltMatchProvider::3            0                       # TAGE provider for alt match
system.cpu.branchPred.tage.tageAltMatchProvider::4          424                       # TAGE provider for alt match
system.cpu.branchPred.tage.tageAltMatchProvider::5            0                       # TAGE provider for alt match
system.cpu.branchPred.tage.tageAltMatchProvider::6          116                       # TAGE provider for alt match
system.cpu.branchPred.tage.tageAltMatchProvider::7         1256                       # TAGE provider for alt match
system.cpu.branchPred.tage.tageAltMatchProvider::8          433                       # TAGE provider for alt match
system.cpu.branchPred.tage.tageAltMatchProvider::9          290                       # TAGE provider for alt match
system.cpu.branchPred.tage.tageAltMatchProvider::10         1131                       # TAGE provider for alt match
system.cpu.branchPred.tage.tageAltMatchProvider::11          216                       # TAGE provider for alt match
system.cpu.branchPred.tage.tageAltMatchProvider::12          199                       # TAGE provider for alt match
system.cpu.branchPred.tage.tageAltMatchProvider::13          148                       # TAGE provider for alt match
system.cpu.branchPred.tage.tageAltMatchProvider::14          192                       # TAGE provider for alt match
system.cpu.branchPred.tage.tageAltMatchProvider::15          122                       # TAGE provider for alt match
system.cpu.branchPred.tage.tageAltMatchProvider::16           92                       # TAGE provider for alt match
system.cpu.branchPred.tage.tageAltMatchProvider::17          106                       # TAGE provider for alt match
system.cpu.branchPred.tage.tageAltMatchProvider::18          119                       # TAGE provider for alt match
system.cpu.branchPred.tage.tageAltMatchProvider::19           51                       # TAGE provider for alt match
system.cpu.branchPred.tage.tageAltMatchProvider::20           72                       # TAGE provider for alt match
system.cpu.branchPred.tage.tageAltMatchProvider::21            0                       # TAGE provider for alt match
system.cpu.branchPred.tage.tageAltMatchProvider::22          122                       # TAGE provider for alt match
system.cpu.branchPred.tage.tageAltMatchProvider::23            0                       # TAGE provider for alt match
system.cpu.branchPred.tage.tageAltMatchProvider::24           99                       # TAGE provider for alt match
system.cpu.branchPred.tage.tageAltMatchProvider::25            0                       # TAGE provider for alt match
system.cpu.branchPred.tage.tageAltMatchProvider::26           89                       # TAGE provider for alt match
system.cpu.branchPred.tage.tageAltMatchProvider::27            0                       # TAGE provider for alt match
system.cpu.branchPred.tage.tageAltMatchProvider::28           41                       # TAGE provider for alt match
system.cpu.branchPred.tage.tageAltMatchProvider::29            0                       # TAGE provider for alt match
system.cpu.branchPred.tage.tageAltMatchProvider::30            0                       # TAGE provider for alt match
system.cpu.branchPred.tage.tageAltMatchProviderCorrect          509                       # Number of times TAGE Alt Match is the provider and the prediction is correct
system.cpu.branchPred.tage.tageAltMatchProviderWouldHaveHit          177                       # Number of times TAGE Longest Match is the provider, the prediction is wrong and Alt Match prediction was correct
system.cpu.branchPred.tage.tageAltMatchProviderWrong          250                       # Number of times TAGE Alt Match is the provider and the prediction is wrong
system.cpu.branchPred.tage.tageBimodalProviderCorrect       343123                       # Number of times there are no hits on the TAGE tables and the bimodal prediction is correct
system.cpu.branchPred.tage.tageBimodalProviderWrong         1700                       # Number of times there are no hits on the TAGE tables and the bimodal prediction is wrong
system.cpu.branchPred.tage.tageLongestMatchProvider::0            0                       # TAGE provider for longest match
system.cpu.branchPred.tage.tageLongestMatchProvider::1            0                       # TAGE provider for longest match
system.cpu.branchPred.tage.tageLongestMatchProvider::2          599                       # TAGE provider for longest match
system.cpu.branchPred.tage.tageLongestMatchProvider::3            0                       # TAGE provider for longest match
system.cpu.branchPred.tage.tageLongestMatchProvider::4          346                       # TAGE provider for longest match
system.cpu.branchPred.tage.tageLongestMatchProvider::5            0                       # TAGE provider for longest match
system.cpu.branchPred.tage.tageLongestMatchProvider::6         1062                       # TAGE provider for longest match
system.cpu.branchPred.tage.tageLongestMatchProvider::7          564                       # TAGE provider for longest match
system.cpu.branchPred.tage.tageLongestMatchProvider::8          512                       # TAGE provider for longest match
system.cpu.branchPred.tage.tageLongestMatchProvider::9          295                       # TAGE provider for longest match
system.cpu.branchPred.tage.tageLongestMatchProvider::10         1593                       # TAGE provider for longest match
system.cpu.branchPred.tage.tageLongestMatchProvider::11         1231                       # TAGE provider for longest match
system.cpu.branchPred.tage.tageLongestMatchProvider::12          376                       # TAGE provider for longest match
system.cpu.branchPred.tage.tageLongestMatchProvider::13          292                       # TAGE provider for longest match
system.cpu.branchPred.tage.tageLongestMatchProvider::14          234                       # TAGE provider for longest match
system.cpu.branchPred.tage.tageLongestMatchProvider::15          198                       # TAGE provider for longest match
system.cpu.branchPred.tage.tageLongestMatchProvider::16          122                       # TAGE provider for longest match
system.cpu.branchPred.tage.tageLongestMatchProvider::17           89                       # TAGE provider for longest match
system.cpu.branchPred.tage.tageLongestMatchProvider::18          148                       # TAGE provider for longest match
system.cpu.branchPred.tage.tageLongestMatchProvider::19          106                       # TAGE provider for longest match
system.cpu.branchPred.tage.tageLongestMatchProvider::20          160                       # TAGE provider for longest match
system.cpu.branchPred.tage.tageLongestMatchProvider::21            0                       # TAGE provider for longest match
system.cpu.branchPred.tage.tageLongestMatchProvider::22           62                       # TAGE provider for longest match
system.cpu.branchPred.tage.tageLongestMatchProvider::23            0                       # TAGE provider for longest match
system.cpu.branchPred.tage.tageLongestMatchProvider::24          138                       # TAGE provider for longest match
system.cpu.branchPred.tage.tageLongestMatchProvider::25            0                       # TAGE provider for longest match
system.cpu.branchPred.tage.tageLongestMatchProvider::26          104                       # TAGE provider for longest match
system.cpu.branchPred.tage.tageLongestMatchProvider::27            0                       # TAGE provider for longest match
system.cpu.branchPred.tage.tageLongestMatchProvider::28          130                       # TAGE provider for longest match
system.cpu.branchPred.tage.tageLongestMatchProvider::29            0                       # TAGE provider for longest match
system.cpu.branchPred.tage.tageLongestMatchProvider::30           76                       # TAGE provider for longest match
system.cpu.branchPred.tage.tageLongestMatchProviderCorrect         6943                       # Number of times TAGE Longest Match is the provider and the prediction is correct
system.cpu.branchPred.tage.tageLongestMatchProviderWouldHaveHit          141                       # Number of times TAGE Alt Match is the provider, the prediction is wrong and Longest Match prediction was correct
system.cpu.branchPred.tage.tageLongestMatchProviderWrong          735                       # Number of times TAGE Longest Match is the provider and the prediction is wrong
system.cpu.branchPred.usedRAS                   64813                       # Number of times the RAS was used to get a target.
system.cpu.branchPred.wormholepredictor.whPredictorCorrect            0                       # Number of time the WH predictor is the provider and the prediction is correct
system.cpu.branchPred.wormholepredictor.whPredictorWrong            0                       # Number of time the WH predictor is the provider and the prediction is wrong
system.cpu.branchPredindirectMispredicted          297                       # Number of mispredicted indirect branches.
system.cpu.cc_regfile_reads                    886726                       # number of cc regfile reads
system.cpu.cc_regfile_writes                   884408                       # number of cc regfile writes
system.cpu.commit.amos                              0                       # Number of atomic instructions committed
system.cpu.commit.branchMispredicts              3729                       # The number of times a branch was mispredicted
system.cpu.commit.branches                     487016                       # Number of branches committed
system.cpu.commit.bw_lim_events                367566                       # number cycles where commit BW limit reached
system.cpu.commit.commitNonSpecStalls             313                       # The number of times commit has been forced to stall to communicate backwards
system.cpu.commit.commitSquashedInsts          109906                       # The number of squashed insts skipped by commit
system.cpu.commit.committedInsts              4228952                       # Number of instructions committed
system.cpu.commit.committedOps                4462420                       # Number of ops (including micro ops) committed
system.cpu.commit.committed_per_cycle::samples      2043523                       # Number of insts commited each cycle
system.cpu.commit.committed_per_cycle::mean     2.183690                       # Number of insts commited each cycle
system.cpu.commit.committed_per_cycle::stdev     3.041936                       # Number of insts commited each cycle
system.cpu.commit.committed_per_cycle::underflows            0      0.00%      0.00% # Number of insts commited each cycle
system.cpu.commit.committed_per_cycle::0       977119     47.82%     47.82% # Number of insts commited each cycle
system.cpu.commit.committed_per_cycle::1       298844     14.62%     62.44% # Number of insts commited each cycle
system.cpu.commit.committed_per_cycle::2       265125     12.97%     75.41% # Number of insts commited each cycle
system.cpu.commit.committed_per_cycle::3        19311      0.94%     76.36% # Number of insts commited each cycle
system.cpu.commit.committed_per_cycle::4        15844      0.78%     77.13% # Number of insts commited each cycle
system.cpu.commit.committed_per_cycle::5        50885      2.49%     79.62% # Number of insts commited each cycle
system.cpu.commit.committed_per_cycle::6        24739      1.21%     80.83% # Number of insts commited each cycle
system.cpu.commit.committed_per_cycle::7        24090      1.18%     82.01% # Number of insts commited each cycle
system.cpu.commit.committed_per_cycle::8       367566     17.99%    100.00% # Number of insts commited each cycle
system.cpu.commit.committed_per_cycle::overflows            0      0.00%    100.00% # Number of insts commited each cycle
system.cpu.commit.committed_per_cycle::min_value            0                       # Number of insts commited each cycle
system.cpu.commit.committed_per_cycle::max_value            8                       # Number of insts commited each cycle
system.cpu.commit.committed_per_cycle::total      2043523                       # Number of insts commited each cycle
system.cpu.commit.fp_insts                          0                       # Number of committed floating point instructions.
system.cpu.commit.function_calls                63038                       # Number of function calls committed.
system.cpu.commit.int_insts                   2716588                       # Number of committed integer instructions.
system.cpu.commit.loads                        501197                       # Number of loads committed
system.cpu.commit.membars                         278                       # Number of memory barriers committed
system.cpu.commit.op_class_0::No_OpClass          165      0.00%      0.00% # Class of committed instruction
system.cpu.commit.op_class_0::IntAlu          2086122     46.75%     46.75% # Class of committed instruction
system.cpu.commit.op_class_0::IntMult            3338      0.07%     46.83% # Class of committed instruction
system.cpu.commit.op_class_0::IntDiv              459      0.01%     46.84% # Class of committed instruction
system.cpu.commit.op_class_0::FloatAdd         334068      7.49%     54.32% # Class of committed instruction
system.cpu.commit.op_class_0::FloatCmp              4      0.00%     54.32% # Class of committed instruction
system.cpu.commit.op_class_0::FloatCvt          76968      1.72%     56.05% # Class of committed instruction
system.cpu.commit.op_class_0::FloatMult        257002      5.76%     61.81% # Class of committed instruction
system.cpu.commit.op_class_0::FloatMultAcc       811455     18.18%     79.99% # Class of committed instruction
system.cpu.commit.op_class_0::FloatDiv              3      0.00%     79.99% # Class of committed instruction
system.cpu.commit.op_class_0::FloatMisc        176468      3.95%     83.95% # Class of committed instruction
system.cpu.commit.op_class_0::FloatSqrt             0      0.00%     83.95% # Class of committed instruction
system.cpu.commit.op_class_0::SimdAdd             385      0.01%     83.96% # Class of committed instruction
system.cpu.commit.op_class_0::SimdAddAcc            0      0.00%     83.96% # Class of committed instruction
system.cpu.commit.op_class_0::SimdAlu             504      0.01%     83.97% # Class of committed instruction
system.cpu.commit.op_class_0::SimdCmp             460      0.01%     83.98% # Class of committed instruction
system.cpu.commit.op_class_0::SimdCvt               0      0.00%     83.98% # Class of committed instruction
system.cpu.commit.op_class_0::SimdMisc            477      0.01%     83.99% # Class of committed instruction
system.cpu.commit.op_class_0::SimdMult              0      0.00%     83.99% # Class of committed instruction
system.cpu.commit.op_class_0::SimdMultAcc            0      0.00%     83.99% # Class of committed instruction
system.cpu.commit.op_class_0::SimdShift             0      0.00%     83.99% # Class of committed instruction
system.cpu.commit.op_class_0::SimdShiftAcc            0      0.00%     83.99% # Class of committed instruction
system.cpu.commit.op_class_0::SimdDiv               0      0.00%     83.99% # Class of committed instruction
system.cpu.commit.op_class_0::SimdSqrt              0      0.00%     83.99% # Class of committed instruction
system.cpu.commit.op_class_0::SimdFloatAdd            0      0.00%     83.99% # Class of committed instruction
system.cpu.commit.op_class_0::SimdFloatAlu            0      0.00%     83.99% # Class of committed instruction
system.cpu.commit.op_class_0::SimdFloatCmp            0      0.00%     83.99% # Class of committed instruction
system.cpu.commit.op_class_0::SimdFloatCvt            0      0.00%     83.99% # Class of committed instruction
system.cpu.commit.op_class_0::SimdFloatDiv            0      0.00%     83.99% # Class of committed instruction
system.cpu.commit.op_class_0::SimdFloatMisc            0      0.00%     83.99% # Class of committed instruction
system.cpu.commit.op_class_0::SimdFloatMult            0      0.00%     83.99% # Class of committed instruction
system.cpu.commit.op_class_0::SimdFloatMultAcc            0      0.00%     83.99% # Class of committed instruction
system.cpu.commit.op_class_0::SimdFloatSqrt            0      0.00%     83.99% # Class of committed instruction
system.cpu.commit.op_class_0::SimdReduceAdd            0      0.00%     83.99% # Class of committed instruction
system.cpu.commit.op_class_0::SimdReduceAlu            0      0.00%     83.99% # Class of committed instruction
system.cpu.commit.op_class_0::SimdReduceCmp            0      0.00%     83.99% # Class of committed instruction
system.cpu.commit.op_class_0::SimdFloatReduceAdd            0      0.00%     83.99% # Class of committed instruction
system.cpu.commit.op_class_0::SimdFloatReduceCmp            0      0.00%     83.99% # Class of committed instruction
system.cpu.commit.op_class_0::SimdAes               0      0.00%     83.99% # Class of committed instruction
system.cpu.commit.op_class_0::SimdAesMix            0      0.00%     83.99% # Class of committed instruction
system.cpu.commit.op_class_0::SimdSha1Hash            0      0.00%     83.99% # Class of committed instruction
system.cpu.commit.op_class_0::SimdSha1Hash2            0      0.00%     83.99% # Class of committed instruction
system.cpu.commit.op_class_0::SimdSha256Hash            0      0.00%     83.99% # Class of committed instruction
system.cpu.commit.op_class_0::SimdSha256Hash2            0      0.00%     83.99% # Class of committed instruction
system.cpu.commit.op_class_0::SimdShaSigma2            0      0.00%     83.99% # Class of committed instruction
system.cpu.commit.op_class_0::SimdShaSigma3            0      0.00%     83.99% # Class of committed instruction
system.cpu.commit.op_class_0::SimdPredAlu            0      0.00%     83.99% # Class of committed instruction
system.cpu.commit.op_class_0::MemRead          501197     11.23%     95.22% # Class of committed instruction
system.cpu.commit.op_class_0::MemWrite         213345      4.78%    100.00% # Class of committed instruction
system.cpu.commit.op_class_0::FloatMemRead            0      0.00%    100.00% # Class of committed instruction
system.cpu.commit.op_class_0::FloatMemWrite            0      0.00%    100.00% # Class of committed instruction
system.cpu.commit.op_class_0::IprAccess             0      0.00%    100.00% # Class of committed instruction
system.cpu.commit.op_class_0::InstPrefetch            0      0.00%    100.00% # Class of committed instruction
system.cpu.commit.op_class_0::total           4462420                       # Class of committed instruction
system.cpu.commit.refs                         714542                       # Number of memory references committed
system.cpu.commit.swp_count                         0                       # Number of s/w prefetches committed
system.cpu.commit.vec_insts                   2111732                       # Number of committed Vector instructions.
system.cpu.committedInsts                     4228395                       # Number of Instructions Simulated
system.cpu.committedOps                       4461863                       # Number of Ops (including micro ops) Simulated
system.cpu.cpi                               0.513169                       # CPI: Cycles Per Instruction
system.cpu.cpi_total                         0.513169                       # CPI: Total CPI of All Threads
system.cpu.decode.BlockedCycles                667140                       # Number of cycles decode is blocked
system.cpu.decode.BranchMispred                   928                       # Number of times decode detected a branch misprediction
system.cpu.decode.BranchResolved               335698                       # Number of times decode resolved a branch
system.cpu.decode.DecodedInsts                4609122                       # Number of instructions handled by decode
system.cpu.decode.IdleCycles                   517708                       # Number of cycles decode is idle
system.cpu.decode.RunCycles                    666584                       # Number of cycles decode is running
system.cpu.decode.SquashCycles                   4112                       # Number of cycles decode is squashing
system.cpu.decode.SquashedInsts                  3281                       # Number of squashed instructions handled by decode
system.cpu.decode.UnblockCycles                204157                       # Number of cycles decode is unblocking
system.cpu.dtb.accesses                             0                       # DTB accesses
system.cpu.dtb.align_faults                         0                       # Number of TLB faults due to alignment restrictions
system.cpu.dtb.domain_faults                        0                       # Number of TLB faults due to domain restrictions
system.cpu.dtb.flush_entries                        0                       # Number of entries that have been flushed from TLB
system.cpu.dtb.flush_tlb                            0                       # Number of times complete TLB was flushed
system.cpu.dtb.flush_tlb_asid                       0                       # Number of times TLB was flushed by ASID
system.cpu.dtb.flush_tlb_mva                        0                       # Number of times TLB was flushed by MVA
system.cpu.dtb.flush_tlb_mva_asid                   0                       # Number of times TLB was flushed by MVA & ASID
system.cpu.dtb.hits                                 0                       # DTB hits
system.cpu.dtb.inst_accesses                        0                       # ITB inst accesses
system.cpu.dtb.inst_hits                            0                       # ITB inst hits
system.cpu.dtb.inst_misses                          0                       # ITB inst misses
system.cpu.dtb.misses                               0                       # DTB misses
system.cpu.dtb.perms_faults                         0                       # Number of TLB faults due to permissions restrictions
system.cpu.dtb.prefetch_faults                      0                       # Number of TLB faults due to prefetch
system.cpu.dtb.read_accesses                        0                       # DTB read accesses
system.cpu.dtb.read_hits                            0                       # DTB read hits
system.cpu.dtb.read_misses                          0                       # DTB read misses
system.cpu.dtb.stage2_mmu.stage2_tlb.accesses            0                       # DTB accesses
system.cpu.dtb.stage2_mmu.stage2_tlb.align_faults            0                       # Number of TLB faults due to alignment restrictions
system.cpu.dtb.stage2_mmu.stage2_tlb.domain_faults            0                       # Number of TLB faults due to domain restrictions
system.cpu.dtb.stage2_mmu.stage2_tlb.flush_entries            0                       # Number of entries that have been flushed from TLB
system.cpu.dtb.stage2_mmu.stage2_tlb.flush_tlb            0                       # Number of times complete TLB was flushed
system.cpu.dtb.stage2_mmu.stage2_tlb.flush_tlb_asid            0                       # Number of times TLB was flushed by ASID
system.cpu.dtb.stage2_mmu.stage2_tlb.flush_tlb_mva            0                       # Number of times TLB was flushed by MVA
system.cpu.dtb.stage2_mmu.stage2_tlb.flush_tlb_mva_asid            0                       # Number of times TLB was flushed by MVA & ASID
system.cpu.dtb.stage2_mmu.stage2_tlb.hits            0                       # DTB hits
system.cpu.dtb.stage2_mmu.stage2_tlb.inst_accesses            0                       # ITB inst accesses
system.cpu.dtb.stage2_mmu.stage2_tlb.inst_hits            0                       # ITB inst hits
system.cpu.dtb.stage2_mmu.stage2_tlb.inst_misses            0                       # ITB inst misses
system.cpu.dtb.stage2_mmu.stage2_tlb.misses            0                       # DTB misses
system.cpu.dtb.stage2_mmu.stage2_tlb.perms_faults            0                       # Number of TLB faults due to permissions restrictions
system.cpu.dtb.stage2_mmu.stage2_tlb.prefetch_faults            0                       # Number of TLB faults due to prefetch
system.cpu.dtb.stage2_mmu.stage2_tlb.read_accesses            0                       # DTB read accesses
system.cpu.dtb.stage2_mmu.stage2_tlb.read_hits            0                       # DTB read hits
system.cpu.dtb.stage2_mmu.stage2_tlb.read_misses            0                       # DTB read misses
system.cpu.dtb.stage2_mmu.stage2_tlb.walker.walkRequestOrigin_Requested::Data            0                       # Table walker requests started/completed, data/inst
system.cpu.dtb.stage2_mmu.stage2_tlb.walker.walkRequestOrigin_Requested::Inst            0                       # Table walker requests started/completed, data/inst
system.cpu.dtb.stage2_mmu.stage2_tlb.walker.walkRequestOrigin_Requested::total            0                       # Table walker requests started/completed, data/inst
system.cpu.dtb.stage2_mmu.stage2_tlb.walker.walkRequestOrigin_Completed::Data            0                       # Table walker requests started/completed, data/inst
system.cpu.dtb.stage2_mmu.stage2_tlb.walker.walkRequestOrigin_Completed::Inst            0                       # Table walker requests started/completed, data/inst
system.cpu.dtb.stage2_mmu.stage2_tlb.walker.walkRequestOrigin_Completed::total            0                       # Table walker requests started/completed, data/inst
system.cpu.dtb.stage2_mmu.stage2_tlb.walker.walkRequestOrigin::total            0                       # Table walker requests started/completed, data/inst
system.cpu.dtb.stage2_mmu.stage2_tlb.walker.walks            0                       # Table walker walks requested
system.cpu.dtb.stage2_mmu.stage2_tlb.write_accesses            0                       # DTB write accesses
system.cpu.dtb.stage2_mmu.stage2_tlb.write_hits            0                       # DTB write hits
system.cpu.dtb.stage2_mmu.stage2_tlb.write_misses            0                       # DTB write misses
system.cpu.dtb.walker.walkRequestOrigin_Requested::Data            0                       # Table walker requests started/completed, data/inst
system.cpu.dtb.walker.walkRequestOrigin_Requested::Inst            0                       # Table walker requests started/completed, data/inst
system.cpu.dtb.walker.walkRequestOrigin_Requested::total            0                       # Table walker requests started/completed, data/inst
system.cpu.dtb.walker.walkRequestOrigin_Completed::Data            0                       # Table walker requests started/completed, data/inst
system.cpu.dtb.walker.walkRequestOrigin_Completed::Inst            0                       # Table walker requests started/completed, data/inst
system.cpu.dtb.walker.walkRequestOrigin_Completed::total            0                       # Table walker requests started/completed, data/inst
system.cpu.dtb.walker.walkRequestOrigin::total            0                       # Table walker requests started/completed, data/inst
system.cpu.dtb.walker.walks                         0                       # Table walker walks requested
system.cpu.dtb.write_accesses                       0                       # DTB write accesses
system.cpu.dtb.write_hits                           0                       # DTB write hits
system.cpu.dtb.write_misses                         0                       # DTB write misses
system.cpu.fetch.Branches                      520783                       # Number of branches that fetch encountered
system.cpu.fetch.CacheLines                    716374                       # Number of cache lines fetched
system.cpu.fetch.Cycles                       1286812                       # Number of cycles fetch has run and was not squashing or blocked
system.cpu.fetch.IcacheSquashes                  2419                       # Number of outstanding Icache misses that were squashed
system.cpu.fetch.IcacheWaitRetryStallCycles          107                       # Number of stall cycles due to full MSHR
system.cpu.fetch.Insts                        4394602                       # Number of instructions fetch has processed
system.cpu.fetch.MiscStallCycles                    7                       # Number of cycles fetch has spent waiting on interrupts, or bad addresses, or out of MSHRs
system.cpu.fetch.SquashCycles                   10054                       # Number of cycles fetch has spent squashing
system.cpu.fetch.branchRate                  0.240005                       # Number of branch fetches per cycle
system.cpu.fetch.icacheStallCycles             767748                       # Number of cycles fetch is stalled on an Icache miss
system.cpu.fetch.predictedBranches             402880                       # Number of branches that fetch has predicted taken
system.cpu.fetch.rate                        2.025273                       # Number of inst fetches per cycle
system.cpu.fetch.rateDist::samples            2059701                       # Number of instructions fetched each cycle (Total)
system.cpu.fetch.rateDist::mean              2.254990                       # Number of instructions fetched each cycle (Total)
system.cpu.fetch.rateDist::stdev             2.860582                       # Number of instructions fetched each cycle (Total)
system.cpu.fetch.rateDist::underflows               0      0.00%      0.00% # Number of instructions fetched each cycle (Total)
system.cpu.fetch.rateDist::0                   993335     48.23%     48.23% # Number of instructions fetched each cycle (Total)
system.cpu.fetch.rateDist::1                   201471      9.78%     58.01% # Number of instructions fetched each cycle (Total)
system.cpu.fetch.rateDist::2                   128503      6.24%     64.25% # Number of instructions fetched each cycle (Total)
system.cpu.fetch.rateDist::3                   114106      5.54%     69.79% # Number of instructions fetched each cycle (Total)
system.cpu.fetch.rateDist::4                   190370      9.24%     79.03% # Number of instructions fetched each cycle (Total)
system.cpu.fetch.rateDist::5                    42786      2.08%     81.11% # Number of instructions fetched each cycle (Total)
system.cpu.fetch.rateDist::6                   117588      5.71%     86.82% # Number of instructions fetched each cycle (Total)
system.cpu.fetch.rateDist::7                     9463      0.46%     87.28% # Number of instructions fetched each cycle (Total)
system.cpu.fetch.rateDist::8                   262079     12.72%    100.00% # Number of instructions fetched each cycle (Total)
system.cpu.fetch.rateDist::overflows                0      0.00%    100.00% # Number of instructions fetched each cycle (Total)
system.cpu.fetch.rateDist::min_value                0                       # Number of instructions fetched each cycle (Total)
system.cpu.fetch.rateDist::max_value                8                       # Number of instructions fetched each cycle (Total)
system.cpu.fetch.rateDist::total              2059701                       # Number of instructions fetched each cycle (Total)
system.cpu.idleCycles                          110180                       # Total number of cycles that the CPU has spent unscheduled due to idling
system.cpu.iew.branchMispredicts                 4495                       # Number of branch mispredicts detected at execute
system.cpu.iew.exec_branches                   501271                       # Number of branches executed
system.cpu.iew.exec_nop                           734                       # number of nop insts executed
system.cpu.iew.exec_rate                     2.139986                       # Inst execution rate
system.cpu.iew.exec_refs                       835667                       # number of memory reference insts executed
system.cpu.iew.exec_stores                     224198                       # Number of stores executed
system.cpu.iew.exec_swp                             0                       # number of swp insts executed
system.cpu.iew.iewBlockCycles                   30821                       # Number of cycles IEW is blocking
system.cpu.iew.iewDispLoadInsts                514461                       # Number of dispatched load instructions
system.cpu.iew.iewDispNonSpecInsts                389                       # Number of dispatched non-speculative instructions
system.cpu.iew.iewDispSquashedInsts              1220                       # Number of squashed instructions skipped by dispatch
system.cpu.iew.iewDispStoreInsts               229799                       # Number of dispatched store instructions
system.cpu.iew.iewDispatchedInsts             4577913                       # Number of instructions dispatched to IQ
system.cpu.iew.iewExecLoadInsts                611469                       # Number of load instructions executed
system.cpu.iew.iewExecSquashedInsts              5256                       # Number of squashed instructions skipped in execute
system.cpu.iew.iewExecutedInsts               4643514                       # Number of executed instructions
system.cpu.iew.iewIQFullEvents                    458                       # Number of times the IQ has become full, causing a stall
system.cpu.iew.iewIdleCycles                        0                       # Number of cycles IEW is idle
system.cpu.iew.iewLSQFullEvents                  4072                       # Number of times the LSQ has become full, causing a stall
system.cpu.iew.iewSquashCycles                   4112                       # Number of cycles IEW is squashing
system.cpu.iew.iewUnblockCycles                  4705                       # Number of cycles IEW is unblocking
system.cpu.iew.lsq.thread0.blockedLoads             0                       # Number of blocked loads due to partial load-store forwarding
system.cpu.iew.lsq.thread0.cacheBlocked         14152                       # Number of times an access to memory failed due to the cache being blocked
system.cpu.iew.lsq.thread0.forwLoads             2700                       # Number of loads that had data forwarded from stores
system.cpu.iew.lsq.thread0.ignoredResponses           40                       # Number of memory responses ignored because the instruction is squashed
system.cpu.iew.lsq.thread0.invAddrLoads             0                       # Number of loads ignored due to an invalid address
system.cpu.iew.lsq.thread0.invAddrSwpfs             0                       # Number of software prefetches ignored due to an invalid address
system.cpu.iew.lsq.thread0.memOrderViolation           80                       # Number of memory ordering violations
system.cpu.iew.lsq.thread0.rescheduledLoads         1927                       # Number of loads that were rescheduled
system.cpu.iew.lsq.thread0.squashedLoads        13264                       # Number of loads squashed
system.cpu.iew.lsq.thread0.squashedStores        16454                       # Number of stores squashed
system.cpu.iew.memOrderViolationEvents             80                       # Number of memory order violations
system.cpu.iew.predictedNotTakenIncorrect         2851                       # Number of branches that were predicted not taken incorrectly
system.cpu.iew.predictedTakenIncorrect           1644                       # Number of branches that were predicted taken incorrectly
system.cpu.iew.wb_consumers                   5891747                       # num instructions consuming a value
system.cpu.iew.wb_count                       4530125                       # cumulative count of insts written-back
system.cpu.iew.wb_fanout                     0.599670                       # average fanout of values written-back
system.cpu.iew.wb_producers                   3533104                       # num instructions producing a value
system.cpu.iew.wb_rate                       2.087730                       # insts written-back per cycle
system.cpu.iew.wb_sent                        4538885                       # cumulative count of insts sent to commit
system.cpu.int_regfile_reads                  3371372                       # number of integer regfile reads
system.cpu.int_regfile_writes                 1893832                       # number of integer regfile writes
system.cpu.ipc                               1.948676                       # IPC: Instructions Per Cycle
system.cpu.ipc_total                         1.948676                       # IPC: Total IPC of All Threads
system.cpu.iq.FU_type_0::No_OpClass               192      0.00%      0.00% # Type of FU issued
system.cpu.iq.FU_type_0::IntAlu               2148381     46.21%     46.22% # Type of FU issued
system.cpu.iq.FU_type_0::IntMult                 3394      0.07%     46.29% # Type of FU issued
system.cpu.iq.FU_type_0::IntDiv                   488      0.01%     46.30% # Type of FU issued
system.cpu.iq.FU_type_0::FloatAdd              334086      7.19%     53.49% # Type of FU issued
system.cpu.iq.FU_type_0::FloatCmp                   5      0.00%     53.49% # Type of FU issued
system.cpu.iq.FU_type_0::FloatCvt               76973      1.66%     55.14% # Type of FU issued
system.cpu.iq.FU_type_0::FloatMult             257027      5.53%     60.67% # Type of FU issued
system.cpu.iq.FU_type_0::FloatMultAcc          811506     17.46%     78.13% # Type of FU issued
system.cpu.iq.FU_type_0::FloatDiv                   3      0.00%     78.13% # Type of FU issued
system.cpu.iq.FU_type_0::FloatMisc             176504      3.80%     81.93% # Type of FU issued
system.cpu.iq.FU_type_0::FloatSqrt                  0      0.00%     81.93% # Type of FU issued
system.cpu.iq.FU_type_0::SimdAdd                  442      0.01%     81.94% # Type of FU issued
system.cpu.iq.FU_type_0::SimdAddAcc                 0      0.00%     81.94% # Type of FU issued
system.cpu.iq.FU_type_0::SimdAlu                  566      0.01%     81.95% # Type of FU issued
system.cpu.iq.FU_type_0::SimdCmp                  521      0.01%     81.96% # Type of FU issued
system.cpu.iq.FU_type_0::SimdCvt                    0      0.00%     81.96% # Type of FU issued
system.cpu.iq.FU_type_0::SimdMisc                 534      0.01%     81.97% # Type of FU issued
system.cpu.iq.FU_type_0::SimdMult                   0      0.00%     81.97% # Type of FU issued
system.cpu.iq.FU_type_0::SimdMultAcc                0      0.00%     81.97% # Type of FU issued
system.cpu.iq.FU_type_0::SimdShift                  0      0.00%     81.97% # Type of FU issued
system.cpu.iq.FU_type_0::SimdShiftAcc               0      0.00%     81.97% # Type of FU issued
system.cpu.iq.FU_type_0::SimdDiv                    0      0.00%     81.97% # Type of FU issued
system.cpu.iq.FU_type_0::SimdSqrt                   0      0.00%     81.97% # Type of FU issued
system.cpu.iq.FU_type_0::SimdFloatAdd               0      0.00%     81.97% # Type of FU issued
system.cpu.iq.FU_type_0::SimdFloatAlu               0      0.00%     81.97% # Type of FU issued
system.cpu.iq.FU_type_0::SimdFloatCmp               0      0.00%     81.97% # Type of FU issued
system.cpu.iq.FU_type_0::SimdFloatCvt               0      0.00%     81.97% # Type of FU issued
system.cpu.iq.FU_type_0::SimdFloatDiv               0      0.00%     81.97% # Type of FU issued
system.cpu.iq.FU_type_0::SimdFloatMisc              0      0.00%     81.97% # Type of FU issued
system.cpu.iq.FU_type_0::SimdFloatMult              0      0.00%     81.97% # Type of FU issued
system.cpu.iq.FU_type_0::SimdFloatMultAcc            0      0.00%     81.97% # Type of FU issued
system.cpu.iq.FU_type_0::SimdFloatSqrt              0      0.00%     81.97% # Type of FU issued
system.cpu.iq.FU_type_0::SimdReduceAdd              0      0.00%     81.97% # Type of FU issued
system.cpu.iq.FU_type_0::SimdReduceAlu              0      0.00%     81.97% # Type of FU issued
system.cpu.iq.FU_type_0::SimdReduceCmp              0      0.00%     81.97% # Type of FU issued
system.cpu.iq.FU_type_0::SimdFloatReduceAdd            0      0.00%     81.97% # Type of FU issued
system.cpu.iq.FU_type_0::SimdFloatReduceCmp            0      0.00%     81.97% # Type of FU issued
system.cpu.iq.FU_type_0::SimdAes                    0      0.00%     81.97% # Type of FU issued
system.cpu.iq.FU_type_0::SimdAesMix                 0      0.00%     81.97% # Type of FU issued
system.cpu.iq.FU_type_0::SimdSha1Hash               0      0.00%     81.97% # Type of FU issued
system.cpu.iq.FU_type_0::SimdSha1Hash2              0      0.00%     81.97% # Type of FU issued
system.cpu.iq.FU_type_0::SimdSha256Hash             0      0.00%     81.97% # Type of FU issued
system.cpu.iq.FU_type_0::SimdSha256Hash2            0      0.00%     81.97% # Type of FU issued
system.cpu.iq.FU_type_0::SimdShaSigma2              0      0.00%     81.97% # Type of FU issued
system.cpu.iq.FU_type_0::SimdShaSigma3              0      0.00%     81.97% # Type of FU issued
system.cpu.iq.FU_type_0::SimdPredAlu                0      0.00%     81.97% # Type of FU issued
system.cpu.iq.FU_type_0::MemRead               612954     13.19%     95.16% # Type of FU issued
system.cpu.iq.FU_type_0::MemWrite              225194      4.84%    100.00% # Type of FU issued
system.cpu.iq.FU_type_0::FloatMemRead               0      0.00%    100.00% # Type of FU issued
system.cpu.iq.FU_type_0::FloatMemWrite              0      0.00%    100.00% # Type of FU issued
system.cpu.iq.FU_type_0::IprAccess                  0      0.00%    100.00% # Type of FU issued
system.cpu.iq.FU_type_0::InstPrefetch               0      0.00%    100.00% # Type of FU issued
system.cpu.iq.FU_type_0::total                4648770                       # Type of FU issued
system.cpu.iq.fp_alu_accesses                       0                       # Number of floating point alu accesses
system.cpu.iq.fp_inst_queue_reads                   0                       # Number of floating instruction queue reads
system.cpu.iq.fp_inst_queue_wakeup_accesses            0                       # Number of floating instruction queue wakeup accesses
system.cpu.iq.fp_inst_queue_writes                  0                       # Number of floating instruction queue writes
system.cpu.iq.fu_busy_cnt                      142165                       # FU busy when requested
system.cpu.iq.fu_busy_rate                   0.030581                       # FU busy rate (busy events/executed inst)
system.cpu.iq.fu_full::No_OpClass                   0      0.00%      0.00% # attempts to use FU when none available
system.cpu.iq.fu_full::IntAlu                       0      0.00%      0.00% # attempts to use FU when none available
system.cpu.iq.fu_full::IntMult                    440      0.31%      0.31% # attempts to use FU when none available
system.cpu.iq.fu_full::IntDiv                       0      0.00%      0.31% # attempts to use FU when none available
system.cpu.iq.fu_full::FloatAdd                     0      0.00%      0.31% # attempts to use FU when none available
system.cpu.iq.fu_full::FloatCmp                     0      0.00%      0.31% # attempts to use FU when none available
system.cpu.iq.fu_full::FloatCvt                     0      0.00%      0.31% # attempts to use FU when none available
system.cpu.iq.fu_full::FloatMult                71702     50.44%     50.75% # attempts to use FU when none available
system.cpu.iq.fu_full::FloatMultAcc             46228     32.52%     83.26% # attempts to use FU when none available
system.cpu.iq.fu_full::FloatDiv                     0      0.00%     83.26% # attempts to use FU when none available
system.cpu.iq.fu_full::FloatMisc                23795     16.74%    100.00% # attempts to use FU when none available
system.cpu.iq.fu_full::FloatSqrt                    0      0.00%    100.00% # attempts to use FU when none available
system.cpu.iq.fu_full::SimdAdd                      0      0.00%    100.00% # attempts to use FU when none available
system.cpu.iq.fu_full::SimdAddAcc                   0      0.00%    100.00% # attempts to use FU when none available
system.cpu.iq.fu_full::SimdAlu                      0      0.00%    100.00% # attempts to use FU when none available
system.cpu.iq.fu_full::SimdCmp                      0      0.00%    100.00% # attempts to use FU when none available
system.cpu.iq.fu_full::SimdCvt                      0      0.00%    100.00% # attempts to use FU when none available
system.cpu.iq.fu_full::SimdMisc                     0      0.00%    100.00% # attempts to use FU when none available
system.cpu.iq.fu_full::SimdMult                     0      0.00%    100.00% # attempts to use FU when none available
system.cpu.iq.fu_full::SimdMultAcc                  0      0.00%    100.00% # attempts to use FU when none available
system.cpu.iq.fu_full::SimdShift                    0      0.00%    100.00% # attempts to use FU when none available
system.cpu.iq.fu_full::SimdShiftAcc                 0      0.00%    100.00% # attempts to use FU when none available
system.cpu.iq.fu_full::SimdDiv                      0      0.00%    100.00% # attempts to use FU when none available
system.cpu.iq.fu_full::SimdSqrt                     0      0.00%    100.00% # attempts to use FU when none available
system.cpu.iq.fu_full::SimdFloatAdd                 0      0.00%    100.00% # attempts to use FU when none available
system.cpu.iq.fu_full::SimdFloatAlu                 0      0.00%    100.00% # attempts to use FU when none available
system.cpu.iq.fu_full::SimdFloatCmp                 0      0.00%    100.00% # attempts to use FU when none available
system.cpu.iq.fu_full::SimdFloatCvt                 0      0.00%    100.00% # attempts to use FU when none available
system.cpu.iq.fu_full::SimdFloatDiv                 0      0.00%    100.00% # attempts to use FU when none available
system.cpu.iq.fu_full::SimdFloatMisc                0      0.00%    100.00% # attempts to use FU when none available
system.cpu.iq.fu_full::SimdFloatMult                0      0.00%    100.00% # attempts to use FU when none available
system.cpu.iq.fu_full::SimdFloatMultAcc             0      0.00%    100.00% # attempts to use FU when none available
system.cpu.iq.fu_full::SimdFloatSqrt                0      0.00%    100.00% # attempts to use FU when none available
system.cpu.iq.fu_full::SimdReduceAdd                0      0.00%    100.00% # attempts to use FU when none available
system.cpu.iq.fu_full::SimdReduceAlu                0      0.00%    100.00% # attempts to use FU when none available
system.cpu.iq.fu_full::SimdReduceCmp                0      0.00%    100.00% # attempts to use FU when none available
system.cpu.iq.fu_full::SimdFloatReduceAdd            0      0.00%    100.00% # attempts to use FU when none available
system.cpu.iq.fu_full::SimdFloatReduceCmp            0      0.00%    100.00% # attempts to use FU when none available
system.cpu.iq.fu_full::SimdAes                      0      0.00%    100.00% # attempts to use FU when none available
system.cpu.iq.fu_full::SimdAesMix                   0      0.00%    100.00% # attempts to use FU when none available
system.cpu.iq.fu_full::SimdSha1Hash                 0      0.00%    100.00% # attempts to use FU when none available
system.cpu.iq.fu_full::SimdSha1Hash2                0      0.00%    100.00% # attempts to use FU when none available
system.cpu.iq.fu_full::SimdSha256Hash               0      0.00%    100.00% # attempts to use FU when none available
system.cpu.iq.fu_full::SimdSha256Hash2              0      0.00%    100.00% # attempts to use FU when none available
system.cpu.iq.fu_full::SimdShaSigma2                0      0.00%    100.00% # attempts to use FU when none available
system.cpu.iq.fu_full::SimdShaSigma3                0      0.00%    100.00% # attempts to use FU when none available
system.cpu.iq.fu_full::SimdPredAlu                  0      0.00%    100.00% # attempts to use FU when none available
system.cpu.iq.fu_full::MemRead                      0      0.00%    100.00% # attempts to use FU when none available
system.cpu.iq.fu_full::MemWrite                     0      0.00%    100.00% # attempts to use FU when none available
system.cpu.iq.fu_full::FloatMemRead                 0      0.00%    100.00% # attempts to use FU when none available
system.cpu.iq.fu_full::FloatMemWrite                0      0.00%    100.00% # attempts to use FU when none available
system.cpu.iq.fu_full::IprAccess                    0      0.00%    100.00% # attempts to use FU when none available
system.cpu.iq.fu_full::InstPrefetch                 0      0.00%    100.00% # attempts to use FU when none available
system.cpu.iq.int_alu_accesses                2441497                       # Number of integer alu accesses
system.cpu.iq.int_inst_queue_reads            6946707                       # Number of integer instruction queue reads
system.cpu.iq.int_inst_queue_wakeup_accesses      2417838                       # Number of integer instruction queue wakeup accesses
system.cpu.iq.int_inst_queue_writes           2578109                       # Number of integer instruction queue writes
system.cpu.iq.iqInstsAdded                    4576790                       # Number of instructions added to the IQ (excludes non-spec)
system.cpu.iq.iqInstsIssued                   4648770                       # Number of instructions issued
system.cpu.iq.iqNonSpecInstsAdded                 389                       # Number of non-speculative instructions added to the IQ
system.cpu.iq.iqSquashedInstsExamined          115315                       # Number of squashed instructions iterated over during squash; mainly for profiling
system.cpu.iq.iqSquashedInstsIssued              4547                       # Number of squashed instructions issued
system.cpu.iq.iqSquashedNonSpecRemoved             76                       # Number of squashed non-spec instructions that were removed
system.cpu.iq.iqSquashedOperandsExamined        82606                       # Number of squashed operands that are examined and possibly removed from graph
system.cpu.iq.issued_per_cycle::samples       2059701                       # Number of insts issued each cycle
system.cpu.iq.issued_per_cycle::mean         2.257012                       # Number of insts issued each cycle
system.cpu.iq.issued_per_cycle::stdev        1.646609                       # Number of insts issued each cycle
system.cpu.iq.issued_per_cycle::underflows            0      0.00%      0.00% # Number of insts issued each cycle
system.cpu.iq.issued_per_cycle::0              517603     25.13%     25.13% # Number of insts issued each cycle
system.cpu.iq.issued_per_cycle::1              298418     14.49%     39.62% # Number of insts issued each cycle
system.cpu.iq.issued_per_cycle::2              125059      6.07%     45.69% # Number of insts issued each cycle
system.cpu.iq.issued_per_cycle::3              374250     18.17%     63.86% # Number of insts issued each cycle
system.cpu.iq.issued_per_cycle::4              744371     36.14%    100.00% # Number of insts issued each cycle
system.cpu.iq.issued_per_cycle::overflows            0      0.00%    100.00% # Number of insts issued each cycle
system.cpu.iq.issued_per_cycle::min_value            0                       # Number of insts issued each cycle
system.cpu.iq.issued_per_cycle::max_value            4                       # Number of insts issued each cycle
system.cpu.iq.issued_per_cycle::total         2059701                       # Number of insts issued each cycle
system.cpu.iq.rate                           2.142408                       # Inst issue rate
system.cpu.iq.vec_alu_accesses                2349246                       # Number of vector alu accesses
system.cpu.iq.vec_inst_queue_reads            4557246                       # Number of vector instruction queue reads
system.cpu.iq.vec_inst_queue_wakeup_accesses      2112287                       # Number of vector instruction queue wakeup accesses
system.cpu.iq.vec_inst_queue_writes           2114460                       # Number of vector instruction queue writes
system.cpu.itb.accesses                             0                       # DTB accesses
system.cpu.itb.align_faults                         0                       # Number of TLB faults due to alignment restrictions
system.cpu.itb.domain_faults                        0                       # Number of TLB faults due to domain restrictions
system.cpu.itb.flush_entries                        0                       # Number of entries that have been flushed from TLB
system.cpu.itb.flush_tlb                            0                       # Number of times complete TLB was flushed
system.cpu.itb.flush_tlb_asid                       0                       # Number of times TLB was flushed by ASID
system.cpu.itb.flush_tlb_mva                        0                       # Number of times TLB was flushed by MVA
system.cpu.itb.flush_tlb_mva_asid                   0                       # Number of times TLB was flushed by MVA & ASID
system.cpu.itb.hits                                 0                       # DTB hits
system.cpu.itb.inst_accesses                        0                       # ITB inst accesses
system.cpu.itb.inst_hits                            0                       # ITB inst hits
system.cpu.itb.inst_misses                          0                       # ITB inst misses
system.cpu.itb.misses                               0                       # DTB misses
system.cpu.itb.perms_faults                         0                       # Number of TLB faults due to permissions restrictions
system.cpu.itb.prefetch_faults                      0                       # Number of TLB faults due to prefetch
system.cpu.itb.read_accesses                        0                       # DTB read accesses
system.cpu.itb.read_hits                            0                       # DTB read hits
system.cpu.itb.read_misses                          0                       # DTB read misses
system.cpu.itb.stage2_mmu.stage2_tlb.accesses            0                       # DTB accesses
system.cpu.itb.stage2_mmu.stage2_tlb.align_faults            0                       # Number of TLB faults due to alignment restrictions
system.cpu.itb.stage2_mmu.stage2_tlb.domain_faults            0                       # Number of TLB faults due to domain restrictions
system.cpu.itb.stage2_mmu.stage2_tlb.flush_entries            0                       # Number of entries that have been flushed from TLB
system.cpu.itb.stage2_mmu.stage2_tlb.flush_tlb            0                       # Number of times complete TLB was flushed
system.cpu.itb.stage2_mmu.stage2_tlb.flush_tlb_asid            0                       # Number of times TLB was flushed by ASID
system.cpu.itb.stage2_mmu.stage2_tlb.flush_tlb_mva            0                       # Number of times TLB was flushed by MVA
system.cpu.itb.stage2_mmu.stage2_tlb.flush_tlb_mva_asid            0                       # Number of times TLB was flushed by MVA & ASID
system.cpu.itb.stage2_mmu.stage2_tlb.hits            0                       # DTB hits
system.cpu.itb.stage2_mmu.stage2_tlb.inst_accesses            0                       # ITB inst accesses
system.cpu.itb.stage2_mmu.stage2_tlb.inst_hits            0                       # ITB inst hits
system.cpu.itb.stage2_mmu.stage2_tlb.inst_misses            0                       # ITB inst misses
system.cpu.itb.stage2_mmu.stage2_tlb.misses            0                       # DTB misses
system.cpu.itb.stage2_mmu.stage2_tlb.perms_faults            0                       # Number of TLB faults due to permissions restrictions
system.cpu.itb.stage2_mmu.stage2_tlb.prefetch_faults            0                       # Number of TLB faults due to prefetch
system.cpu.itb.stage2_mmu.stage2_tlb.read_accesses            0                       # DTB read accesses
system.cpu.itb.stage2_mmu.stage2_tlb.read_hits            0                       # DTB read hits
system.cpu.itb.stage2_mmu.stage2_tlb.read_misses            0                       # DTB read misses
system.cpu.itb.stage2_mmu.stage2_tlb.walker.walkRequestOrigin_Requested::Data            0                       # Table walker requests started/completed, data/inst
system.cpu.itb.stage2_mmu.stage2_tlb.walker.walkRequestOrigin_Requested::Inst            0                       # Table walker requests started/completed, data/inst
system.cpu.itb.stage2_mmu.stage2_tlb.walker.walkRequestOrigin_Requested::total            0                       # Table walker requests started/completed, data/inst
system.cpu.itb.stage2_mmu.stage2_tlb.walker.walkRequestOrigin_Completed::Data            0                       # Table walker requests started/completed, data/inst
system.cpu.itb.stage2_mmu.stage2_tlb.walker.walkRequestOrigin_Completed::Inst            0                       # Table walker requests started/completed, data/inst
system.cpu.itb.stage2_mmu.stage2_tlb.walker.walkRequestOrigin_Completed::total            0                       # Table walker requests started/completed, data/inst
system.cpu.itb.stage2_mmu.stage2_tlb.walker.walkRequestOrigin::total            0                       # Table walker requests started/completed, data/inst
system.cpu.itb.stage2_mmu.stage2_tlb.walker.walks            0                       # Table walker walks requested
system.cpu.itb.stage2_mmu.stage2_tlb.write_accesses            0                       # DTB write accesses
system.cpu.itb.stage2_mmu.stage2_tlb.write_hits            0                       # DTB write hits
system.cpu.itb.stage2_mmu.stage2_tlb.write_misses            0                       # DTB write misses
system.cpu.itb.walker.walkRequestOrigin_Requested::Data            0                       # Table walker requests started/completed, data/inst
system.cpu.itb.walker.walkRequestOrigin_Requested::Inst            0                       # Table walker requests started/completed, data/inst
system.cpu.itb.walker.walkRequestOrigin_Requested::total            0                       # Table walker requests started/completed, data/inst
system.cpu.itb.walker.walkRequestOrigin_Completed::Data            0                       # Table walker requests started/completed, data/inst
system.cpu.itb.walker.walkRequestOrigin_Completed::Inst            0                       # Table walker requests started/completed, data/inst
system.cpu.itb.walker.walkRequestOrigin_Completed::total            0                       # Table walker requests started/completed, data/inst
system.cpu.itb.walker.walkRequestOrigin::total            0                       # Table walker requests started/completed, data/inst
system.cpu.itb.walker.walks                         0                       # Table walker walks requested
system.cpu.itb.write_accesses                       0                       # DTB write accesses
system.cpu.itb.write_hits                           0                       # DTB write hits
system.cpu.itb.write_misses                         0                       # DTB write misses
system.cpu.memDep0.conflictingLoads              1892                       # Number of conflicting loads.
system.cpu.memDep0.conflictingStores             1833                       # Number of conflicting stores.
system.cpu.memDep0.insertedLoads               514461                       # Number of loads inserted to the mem dependence unit.
system.cpu.memDep0.insertedStores              229799                       # Number of stores inserted to the mem dependence unit.
system.cpu.misc_regfile_reads                 8173473                       # number of misc regfile reads
system.cpu.misc_regfile_writes                1480611                       # number of misc regfile writes
system.cpu.numCycles                          2169881                       # number of cpu cycles simulated
system.cpu.numWorkItemsCompleted                    0                       # number of work items this cpu completed
system.cpu.numWorkItemsStarted                      0                       # number of work items this cpu started
system.cpu.rename.BlockCycles                   40850                       # Number of cycles rename is blocking
system.cpu.rename.CommittedMaps               6322780                       # Number of HB maps that are committed
system.cpu.rename.IQFullEvents                 237918                       # Number of times rename has blocked due to IQ full
system.cpu.rename.IdleCycles                   600011                       # Number of cycles rename is idle
system.cpu.rename.LQFullEvents                    201                       # Number of times rename has blocked due to LQ full
system.cpu.rename.ROBFullEvents                   165                       # Number of times rename has blocked due to ROB full
system.cpu.rename.RenameLookups              13696650                       # Number of register rename lookups that rename has made
system.cpu.rename.RenamedInsts                4595650                       # Number of instructions processed by rename
system.cpu.rename.RenamedOperands             6464946                       # Number of destination operands rename has renamed
system.cpu.rename.RunCycles                    788021                       # Number of cycles rename is running
system.cpu.rename.SQFullEvents                 295113                       # Number of times rename has blocked due to SQ full
system.cpu.rename.SquashCycles                   4112                       # Number of cycles rename is squashing
system.cpu.rename.UnblockCycles                599150                       # Number of cycles rename is unblocking
system.cpu.rename.UndoneMaps                   142166                       # Number of HB maps that are undone due to squashing
system.cpu.rename.int_rename_lookups          3334464                       # Number of integer rename lookups
system.cpu.rename.serializeStallCycles          27557                       # count of cycles rename stalled for serializing inst
system.cpu.rename.serializingInsts               1261                       # count of serializing insts renamed
system.cpu.rename.skidInsts                    885322                       # count of insts added to the skid buffer
system.cpu.rename.tempSerializingInsts            386                       # count of temporary serializing insts renamed
system.cpu.rename.vec_rename_lookups          3741581                       # Number of vector rename lookups
system.cpu.rob.rob_reads                      6244097                       # The number of ROB reads
system.cpu.rob.rob_writes                     9160913                       # The number of ROB writes
system.cpu.timesIdled                            1587                       # Number of times that the entire CPU went into an idle state and unscheduled itself
system.cpu.vec_regfile_reads                  3740033                       # number of vector regfile reads
system.cpu.vec_regfile_writes                 2150584                       # number of vector regfile writes
system.cpu.workload.numSyscalls                    34                       # Number of system calls
system.membus.snoop_filter.hit_multi_requests            0                       # Number of requests hitting in the snoop filter with multiple (>1) holders of the requested data.
system.membus.snoop_filter.hit_multi_snoops            0                       # Number of snoops hitting in the snoop filter with multiple (>1) holders of the requested data.
system.membus.snoop_filter.hit_single_requests            0                       # Number of requests hitting in the snoop filter with a single holder of the requested data.
system.membus.snoop_filter.hit_single_snoops            0                       # Number of snoops hitting in the snoop filter with a single holder of the requested data.
system.membus.snoop_filter.tot_requests         19862                       # Total number of requests made to the snoop filter.
system.membus.snoop_filter.tot_snoops               0                       # Total number of snoops made to the snoop filter.
system.tol2bus.snoop_filter.hit_multi_requests            1                       # Number of requests hitting in the snoop filter with multiple (>1) holders of the requested data.
system.tol2bus.snoop_filter.hit_multi_snoops            0                       # Number of snoops hitting in the snoop filter with multiple (>1) holders of the requested data.
system.tol2bus.snoop_filter.hit_single_requests        21694                       # Number of requests hitting in the snoop filter with a single holder of the requested data.
system.tol2bus.snoop_filter.hit_single_snoops            0                       # Number of snoops hitting in the snoop filter with a single holder of the requested data.
system.tol2bus.snoop_filter.tot_requests        44411                       # Total number of requests made to the snoop filter.
system.tol2bus.snoop_filter.tot_snoops              0                       # Total number of snoops made to the snoop filter.
system.membus.trans_dist::ReadResp               1721                       # Transaction distribution
system.membus.trans_dist::ReadExReq             16972                       # Transaction distribution
system.membus.trans_dist::ReadExResp            16972                       # Transaction distribution
system.membus.trans_dist::ReadSharedReq          1721                       # Transaction distribution
system.membus.trans_dist::InvalidateReq          1169                       # Transaction distribution
system.membus.pkt_count_system.l2.mem_side::system.mem_ctrls.port        38555                       # Packet count per connected master and slave (bytes)
system.membus.pkt_count::total                  38555                       # Packet count per connected master and slave (bytes)
system.membus.pkt_size_system.l2.mem_side::system.mem_ctrls.port      1196352                       # Cumulative packet size per connected master and slave (bytes)
system.membus.pkt_size::total                 1196352                       # Cumulative packet size per connected master and slave (bytes)
system.membus.snoops                                0                       # Total snoops (count)
system.membus.snoopTraffic                          0                       # Total snoop traffic (bytes)
system.membus.snoop_fanout::samples             19862                       # Request fanout histogram
system.membus.snoop_fanout::mean                    0                       # Request fanout histogram
system.membus.snoop_fanout::stdev                   0                       # Request fanout histogram
system.membus.snoop_fanout::underflows              0      0.00%      0.00% # Request fanout histogram
system.membus.snoop_fanout::0                   19862    100.00%    100.00% # Request fanout histogram
system.membus.snoop_fanout::1                       0      0.00%    100.00% # Request fanout histogram
system.membus.snoop_fanout::overflows               0      0.00%    100.00% # Request fanout histogram
system.membus.snoop_fanout::min_value               0                       # Request fanout histogram
system.membus.snoop_fanout::max_value               0                       # Request fanout histogram
system.membus.snoop_fanout::total               19862                       # Request fanout histogram
system.membus.reqLayer0.occupancy            22134500                       # Layer occupancy (ticks)
system.membus.reqLayer0.utilization               2.0                       # Layer utilization (%)
system.membus.respLayer1.occupancy           97965250                       # Layer occupancy (ticks)
system.membus.respLayer1.utilization              9.0                       # Layer utilization (%)
system.membus.power_state.pwrStateResidencyTicks::UNDEFINED   1084939500                       # Cumulative time (in ticks) in various power states
system.tol2bus.trans_dist::ReadResp              3502                       # Transaction distribution
system.tol2bus.trans_dist::WritebackDirty        18951                       # Transaction distribution
system.tol2bus.trans_dist::WritebackClean         2277                       # Transaction distribution
system.tol2bus.trans_dist::CleanEvict             466                       # Transaction distribution
system.tol2bus.trans_dist::ReadExReq            17995                       # Transaction distribution
system.tol2bus.trans_dist::ReadExResp           17995                       # Transaction distribution
system.tol2bus.trans_dist::ReadCleanReq          2788                       # Transaction distribution
system.tol2bus.trans_dist::ReadSharedReq          715                       # Transaction distribution
system.tol2bus.trans_dist::InvalidateReq         1219                       # Transaction distribution
system.tol2bus.trans_dist::InvalidateResp         1219                       # Transaction distribution
system.tol2bus.pkt_count_system.cpu.icache.mem_side::system.l2.cpu_side         7852                       # Packet count per connected master and slave (bytes)
system.tol2bus.pkt_count_system.cpu.dcache.mem_side::system.l2.cpu_side        59275                       # Packet count per connected master and slave (bytes)
system.tol2bus.pkt_count::total                 67127                       # Packet count per connected master and slave (bytes)
system.tol2bus.pkt_size_system.cpu.icache.mem_side::system.l2.cpu_side       324096                       # Cumulative packet size per connected master and slave (bytes)
system.tol2bus.pkt_size_system.cpu.dcache.mem_side::system.l2.cpu_side      2410304                       # Cumulative packet size per connected master and slave (bytes)
system.tol2bus.pkt_size::total                2734400                       # Cumulative packet size per connected master and slave (bytes)
system.tol2bus.snoops                               0                       # Total snoops (count)
system.tol2bus.snoopTraffic                         0                       # Total snoop traffic (bytes)
system.tol2bus.snoop_fanout::samples            22717                       # Request fanout histogram
system.tol2bus.snoop_fanout::mean            0.000044                       # Request fanout histogram
system.tol2bus.snoop_fanout::stdev           0.006635                       # Request fanout histogram
system.tol2bus.snoop_fanout::underflows             0      0.00%      0.00% # Request fanout histogram
system.tol2bus.snoop_fanout::0                  22716    100.00%    100.00% # Request fanout histogram
system.tol2bus.snoop_fanout::1                      1      0.00%    100.00% # Request fanout histogram
system.tol2bus.snoop_fanout::2                      0      0.00%    100.00% # Request fanout histogram
system.tol2bus.snoop_fanout::overflows              0      0.00%    100.00% # Request fanout histogram
system.tol2bus.snoop_fanout::min_value              0                       # Request fanout histogram
system.tol2bus.snoop_fanout::max_value              1                       # Request fanout histogram
system.tol2bus.snoop_fanout::total              22717                       # Request fanout histogram
system.tol2bus.reqLayer0.occupancy           43433500                       # Layer occupancy (ticks)
system.tol2bus.reqLayer0.utilization              4.0                       # Layer utilization (%)
system.tol2bus.respLayer1.occupancy          28675498                       # Layer occupancy (ticks)
system.tol2bus.respLayer1.utilization             2.6                       # Layer utilization (%)
system.tol2bus.respLayer0.occupancy           4182496                       # Layer occupancy (ticks)
system.tol2bus.respLayer0.utilization             0.4                       # Layer utilization (%)
system.tol2bus.power_state.pwrStateResidencyTicks::UNDEFINED   1084939500                       # Cumulative time (in ticks) in various power states
system.voltage_domain.voltage                       1                       # Voltage in Volts
system.clk_domain.clock                          1000                       # Clock period in ticks
system.l2.demand_hits::.cpu.inst                 1426                       # number of demand (read+write) hits
system.l2.demand_hits::.cpu.data                 1378                       # number of demand (read+write) hits
system.l2.demand_hits::total                     2804                       # number of demand (read+write) hits
system.l2.overall_hits::.cpu.inst                1426                       # number of overall hits
system.l2.overall_hits::.cpu.data                1378                       # number of overall hits
system.l2.overall_hits::total                    2804                       # number of overall hits
system.l2.demand_misses::.cpu.inst               1362                       # number of demand (read+write) misses
system.l2.demand_misses::.cpu.data              17332                       # number of demand (read+write) misses
system.l2.demand_misses::total                  18694                       # number of demand (read+write) misses
system.l2.overall_misses::.cpu.inst              1362                       # number of overall misses
system.l2.overall_misses::.cpu.data             17332                       # number of overall misses
system.l2.overall_misses::total                 18694                       # number of overall misses
system.l2.demand_miss_latency::.cpu.inst    106327000                       # number of demand (read+write) miss cycles
system.l2.demand_miss_latency::.cpu.data   1283328500                       # number of demand (read+write) miss cycles
system.l2.demand_miss_latency::total       1389655500                       # number of demand (read+write) miss cycles
system.l2.overall_miss_latency::.cpu.inst    106327000                       # number of overall miss cycles
system.l2.overall_miss_latency::.cpu.data   1283328500                       # number of overall miss cycles
system.l2.overall_miss_latency::total      1389655500                       # number of overall miss cycles
system.l2.demand_accesses::.cpu.inst             2788                       # number of demand (read+write) accesses
system.l2.demand_accesses::.cpu.data            18710                       # number of demand (read+write) accesses
system.l2.demand_accesses::total                21498                       # number of demand (read+write) accesses
system.l2.overall_accesses::.cpu.inst            2788                       # number of overall (read+write) accesses
system.l2.overall_accesses::.cpu.data           18710                       # number of overall (read+write) accesses
system.l2.overall_accesses::total               21498                       # number of overall (read+write) accesses
system.l2.demand_miss_rate::.cpu.inst        0.488522                       # miss rate for demand accesses
system.l2.demand_miss_rate::.cpu.data        0.926350                       # miss rate for demand accesses
system.l2.demand_miss_rate::total            0.869569                       # miss rate for demand accesses
system.l2.overall_miss_rate::.cpu.inst       0.488522                       # miss rate for overall accesses
system.l2.overall_miss_rate::.cpu.data       0.926350                       # miss rate for overall accesses
system.l2.overall_miss_rate::total           0.869569                       # miss rate for overall accesses
[...]
system.cpu.dcache.overall_miss_latency::total   8527971438                       # number of overall miss cycles
system.cpu.dcache.demand_accesses::.cpu.data       736842                       # number of demand (read+write) accesses
system.cpu.dcache.demand_accesses::total       736842                       # number of demand (read+write) accesses
system.cpu.dcache.overall_accesses::.cpu.data       737216                       # number of overall (read+write) accesses
system.cpu.dcache.overall_accesses::total       737216                       # number of overall (read+write) accesses
system.cpu.dcache.demand_miss_rate::.cpu.data     0.190293                       # miss rate for demand accesses
system.cpu.dcache.demand_miss_rate::total     0.190293                       # miss rate for demand accesses
system.cpu.dcache.overall_miss_rate::.cpu.data     0.190221                       # miss rate for overall accesses
system.cpu.dcache.overall_miss_rate::total     0.190221                       # miss rate for overall accesses
system.cpu.dcache.demand_avg_miss_latency::.cpu.data 60820.244751                       # average overall miss latency
system.cpu.dcache.demand_avg_miss_latency::total 60820.244751                       # average overall miss latency
system.cpu.dcache.overall_avg_miss_latency::.cpu.data 60812.438054                       # average overall miss latency
system.cpu.dcache.overall_avg_miss_latency::total 60812.438054                       # average overall miss latency
system.cpu.dcache.blocked_cycles::no_mshrs       540008                       # number of cycles access was blocked
system.cpu.dcache.blocked_cycles::no_targets            5                       # number of cycles access was blocked
system.cpu.dcache.blocked::no_mshrs             16162                       # number of cycles access was blocked
system.cpu.dcache.blocked::no_targets               1                       # number of cycles access was blocked
system.cpu.dcache.avg_blocked_cycles::no_mshrs    33.412201                       # average number of cycles each access was blocked
system.cpu.dcache.avg_blocked_cycles::no_targets            5                       # average number of cycles each access was blocked
system.cpu.dcache.writebacks::.writebacks        18951                       # number of writebacks
system.cpu.dcache.writebacks::total             18951                       # number of writebacks
system.cpu.dcache.demand_mshr_hits::.cpu.data       120297                       # number of demand (read+write) MSHR hits
system.cpu.dcache.demand_mshr_hits::total       120297                       # number of demand (read+write) MSHR hits
system.cpu.dcache.overall_mshr_hits::.cpu.data       120297                       # number of overall MSHR hits
system.cpu.dcache.overall_mshr_hits::total       120297                       # number of overall MSHR hits
system.cpu.dcache.demand_mshr_misses::.cpu.data        19919                       # number of demand (read+write) MSHR misses
system.cpu.dcache.demand_mshr_misses::total        19919                       # number of demand (read+write) MSHR misses
system.cpu.dcache.overall_mshr_misses::.cpu.data        19926                       # number of overall MSHR misses
system.cpu.dcache.overall_mshr_misses::total        19926                       # number of overall MSHR misses
system.cpu.dcache.demand_mshr_miss_latency::.cpu.data   1363650552                       # number of demand (read+write) MSHR miss cycles
system.cpu.dcache.demand_mshr_miss_latency::total   1363650552                       # number of demand (read+write) MSHR miss cycles
system.cpu.dcache.overall_mshr_miss_latency::.cpu.data   1363946052                       # number of overall MSHR miss cycles
system.cpu.dcache.overall_mshr_miss_latency::total   1363946052                       # number of overall MSHR miss cycles
system.cpu.dcache.demand_mshr_miss_rate::.cpu.data     0.027033                       # mshr miss rate for demand accesses
system.cpu.dcache.demand_mshr_miss_rate::total     0.027033                       # mshr miss rate for demand accesses
system.cpu.dcache.overall_mshr_miss_rate::.cpu.data     0.027029                       # mshr miss rate for overall accesses
system.cpu.dcache.overall_mshr_miss_rate::total     0.027029                       # mshr miss rate for overall accesses
system.cpu.dcache.demand_avg_mshr_miss_latency::.cpu.data 68459.789748                       # average overall mshr miss latency
system.cpu.dcache.demand_avg_mshr_miss_latency::total 68459.789748                       # average overall mshr miss latency
system.cpu.dcache.overall_avg_mshr_miss_latency::.cpu.data 68450.569708                       # average overall mshr miss latency
system.cpu.dcache.overall_avg_mshr_miss_latency::total 68450.569708                       # average overall mshr miss latency
system.cpu.dcache.replacements                  19417                       # number of replacements
system.cpu.dcache.ReadReq_hits::.cpu.data       521800                       # number of ReadReq hits
system.cpu.dcache.ReadReq_hits::total          521800                       # number of ReadReq hits
system.cpu.dcache.ReadReq_misses::.cpu.data         1955                       # number of ReadReq misses
system.cpu.dcache.ReadReq_misses::total          1955                       # number of ReadReq misses
system.cpu.dcache.ReadReq_miss_latency::.cpu.data    105769500                       # number of ReadReq miss cycles
system.cpu.dcache.ReadReq_miss_latency::total    105769500                       # number of ReadReq miss cycles
system.cpu.dcache.ReadReq_accesses::.cpu.data       523755                       # number of ReadReq accesses(hits+misses)
system.cpu.dcache.ReadReq_accesses::total       523755                       # number of ReadReq accesses(hits+misses)
system.cpu.dcache.ReadReq_miss_rate::.cpu.data     0.003733                       # miss rate for ReadReq accesses
system.cpu.dcache.ReadReq_miss_rate::total     0.003733                       # miss rate for ReadReq accesses
system.cpu.dcache.ReadReq_avg_miss_latency::.cpu.data 54102.046036                       # average ReadReq miss latency
system.cpu.dcache.ReadReq_avg_miss_latency::total 54102.046036                       # average ReadReq miss latency
system.cpu.dcache.ReadReq_mshr_hits::.cpu.data         1250                       # number of ReadReq MSHR hits
system.cpu.dcache.ReadReq_mshr_hits::total         1250                       # number of ReadReq MSHR hits
system.cpu.dcache.ReadReq_mshr_misses::.cpu.data          705                       # number of ReadReq MSHR misses
system.cpu.dcache.ReadReq_mshr_misses::total          705                       # number of ReadReq MSHR misses
system.cpu.dcache.ReadReq_mshr_miss_latency::.cpu.data     34300000                       # number of ReadReq MSHR miss cycles
system.cpu.dcache.ReadReq_mshr_miss_latency::total     34300000                       # number of ReadReq MSHR miss cycles
system.cpu.dcache.ReadReq_mshr_miss_rate::.cpu.data     0.001346                       # mshr miss rate for ReadReq accesses
system.cpu.dcache.ReadReq_mshr_miss_rate::total     0.001346                       # mshr miss rate for ReadReq accesses
system.cpu.dcache.ReadReq_avg_mshr_miss_latency::.cpu.data 48652.482270                       # average ReadReq mshr miss latency
system.cpu.dcache.ReadReq_avg_mshr_miss_latency::total 48652.482270                       # average ReadReq mshr miss latency
system.cpu.dcache.WriteReq_hits::.cpu.data        74783                       # number of WriteReq hits
system.cpu.dcache.WriteReq_hits::total          74783                       # number of WriteReq hits
system.cpu.dcache.WriteReq_misses::.cpu.data       137043                       # number of WriteReq misses
system.cpu.dcache.WriteReq_misses::total       137043                       # number of WriteReq misses
system.cpu.dcache.WriteReq_miss_latency::.cpu.data   8383358871                       # number of WriteReq miss cycles
system.cpu.dcache.WriteReq_miss_latency::total   8383358871                       # number of WriteReq miss cycles
system.cpu.dcache.WriteReq_accesses::.cpu.data       211826                       # number of WriteReq accesses(hits+misses)
system.cpu.dcache.WriteReq_accesses::total       211826                       # number of WriteReq accesses(hits+misses)
system.cpu.dcache.WriteReq_miss_rate::.cpu.data     0.646960                       # miss rate for WriteReq accesses
system.cpu.dcache.WriteReq_miss_rate::total     0.646960                       # miss rate for WriteReq accesses
system.cpu.dcache.WriteReq_avg_miss_latency::.cpu.data 61173.200171                       # average WriteReq miss latency
system.cpu.dcache.WriteReq_avg_miss_latency::total 61173.200171                       # average WriteReq miss latency
system.cpu.dcache.WriteReq_mshr_hits::.cpu.data       119047                       # number of WriteReq MSHR hits
system.cpu.dcache.WriteReq_mshr_hits::total       119047                       # number of WriteReq MSHR hits
system.cpu.dcache.WriteReq_mshr_misses::.cpu.data        17996                       # number of WriteReq MSHR misses
system.cpu.dcache.WriteReq_mshr_misses::total        17996                       # number of WriteReq MSHR misses
system.cpu.dcache.WriteReq_mshr_miss_latency::.cpu.data   1291725485                       # number of WriteReq MSHR miss cycles
system.cpu.dcache.WriteReq_mshr_miss_latency::total   1291725485                       # number of WriteReq MSHR miss cycles
system.cpu.dcache.WriteReq_mshr_miss_rate::.cpu.data     0.084957                       # mshr miss rate for WriteReq accesses
system.cpu.dcache.WriteReq_mshr_miss_rate::total     0.084957                       # mshr miss rate for WriteReq accesses
system.cpu.dcache.WriteReq_avg_mshr_miss_latency::.cpu.data 71778.477717                       # average WriteReq mshr miss latency
system.cpu.dcache.WriteReq_avg_mshr_miss_latency::total 71778.477717                       # average WriteReq mshr miss latency
system.cpu.dcache.SoftPFReq_hits::.cpu.data          356                       # number of SoftPFReq hits
system.cpu.dcache.SoftPFReq_hits::total           356                       # number of SoftPFReq hits
system.cpu.dcache.SoftPFReq_misses::.cpu.data           18                       # number of SoftPFReq misses
system.cpu.dcache.SoftPFReq_misses::total           18                       # number of SoftPFReq misses
system.cpu.dcache.SoftPFReq_accesses::.cpu.data          374                       # number of SoftPFReq accesses(hits+misses)
system.cpu.dcache.SoftPFReq_accesses::total          374                       # number of SoftPFReq accesses(hits+misses)
system.cpu.dcache.SoftPFReq_miss_rate::.cpu.data     0.048128                       # miss rate for SoftPFReq accesses
system.cpu.dcache.SoftPFReq_miss_rate::total     0.048128                       # miss rate for SoftPFReq accesses
system.cpu.dcache.SoftPFReq_mshr_misses::.cpu.data            7                       # number of SoftPFReq MSHR misses
system.cpu.dcache.SoftPFReq_mshr_misses::total            7                       # number of SoftPFReq MSHR misses
system.cpu.dcache.SoftPFReq_mshr_miss_latency::.cpu.data       295500                       # number of SoftPFReq MSHR miss cycles
system.cpu.dcache.SoftPFReq_mshr_miss_latency::total       295500                       # number of SoftPFReq MSHR miss cycles
system.cpu.dcache.SoftPFReq_mshr_miss_rate::.cpu.data     0.018717                       # mshr miss rate for SoftPFReq accesses
system.cpu.dcache.SoftPFReq_mshr_miss_rate::total     0.018717                       # mshr miss rate for SoftPFReq accesses
system.cpu.dcache.SoftPFReq_avg_mshr_miss_latency::.cpu.data 42214.285714                       # average SoftPFReq mshr miss latency
system.cpu.dcache.SoftPFReq_avg_mshr_miss_latency::total 42214.285714                       # average SoftPFReq mshr miss latency
system.cpu.dcache.WriteLineReq_hits::.cpu.data           43                       # number of WriteLineReq hits
system.cpu.dcache.WriteLineReq_hits::total           43                       # number of WriteLineReq hits
system.cpu.dcache.WriteLineReq_misses::.cpu.data         1218                       # number of WriteLineReq misses
system.cpu.dcache.WriteLineReq_misses::total         1218                       # number of WriteLineReq misses
system.cpu.dcache.WriteLineReq_miss_latency::.cpu.data     38843067                       # number of WriteLineReq miss cycles
system.cpu.dcache.WriteLineReq_miss_latency::total     38843067                       # number of WriteLineReq miss cycles
system.cpu.dcache.WriteLineReq_accesses::.cpu.data         1261                       # number of WriteLineReq accesses(hits+misses)
system.cpu.dcache.WriteLineReq_accesses::total         1261                       # number of WriteLineReq accesses(hits+misses)
system.cpu.dcache.WriteLineReq_miss_rate::.cpu.data     0.965900                       # miss rate for WriteLineReq accesses
system.cpu.dcache.WriteLineReq_miss_rate::total     0.965900                       # miss rate for WriteLineReq accesses
system.cpu.dcache.WriteLineReq_avg_miss_latency::.cpu.data 31890.859606                       # average WriteLineReq miss latency
system.cpu.dcache.WriteLineReq_avg_miss_latency::total 31890.859606                       # average WriteLineReq miss latency
system.cpu.dcache.WriteLineReq_mshr_misses::.cpu.data         1218                       # number of WriteLineReq MSHR misses
system.cpu.dcache.WriteLineReq_mshr_misses::total         1218                       # number of WriteLineReq MSHR misses
system.cpu.dcache.WriteLineReq_mshr_miss_latency::.cpu.data     37625067                       # number of WriteLineReq MSHR miss cycles
system.cpu.dcache.WriteLineReq_mshr_miss_latency::total     37625067                       # number of WriteLineReq MSHR miss cycles
system.cpu.dcache.WriteLineReq_mshr_miss_rate::.cpu.data     0.965900                       # mshr miss rate for WriteLineReq accesses
system.cpu.dcache.WriteLineReq_mshr_miss_rate::total     0.965900                       # mshr miss rate for WriteLineReq accesses
system.cpu.dcache.WriteLineReq_avg_mshr_miss_latency::.cpu.data 30890.859606                       # average WriteLineReq mshr miss latency
system.cpu.dcache.WriteLineReq_avg_mshr_miss_latency::total 30890.859606                       # average WriteLineReq mshr miss latency
system.cpu.dcache.LoadLockedReq_hits::.cpu.data          302                       # number of LoadLockedReq hits
system.cpu.dcache.LoadLockedReq_hits::total          302                       # number of LoadLockedReq hits
system.cpu.dcache.LoadLockedReq_misses::.cpu.data            8                       # number of LoadLockedReq misses
system.cpu.dcache.LoadLockedReq_misses::total            8                       # number of LoadLockedReq misses
system.cpu.dcache.LoadLockedReq_miss_latency::.cpu.data       276500                       # number of LoadLockedReq miss cycles
system.cpu.dcache.LoadLockedReq_miss_latency::total       276500                       # number of LoadLockedReq miss cycles
system.cpu.dcache.LoadLockedReq_accesses::.cpu.data          310                       # number of LoadLockedReq accesses(hits+misses)
system.cpu.dcache.LoadLockedReq_accesses::total          310                       # number of LoadLockedReq accesses(hits+misses)
system.cpu.dcache.LoadLockedReq_miss_rate::.cpu.data     0.025806                       # miss rate for LoadLockedReq accesses
system.cpu.dcache.LoadLockedReq_miss_rate::total     0.025806                       # miss rate for LoadLockedReq accesses
system.cpu.dcache.LoadLockedReq_avg_miss_latency::.cpu.data 34562.500000                       # average LoadLockedReq miss latency
system.cpu.dcache.LoadLockedReq_avg_miss_latency::total 34562.500000                       # average LoadLockedReq miss latency
system.cpu.dcache.LoadLockedReq_mshr_hits::.cpu.data            5                       # number of LoadLockedReq MSHR hits
system.cpu.dcache.LoadLockedReq_mshr_hits::total            5                       # number of LoadLockedReq MSHR hits
system.cpu.dcache.LoadLockedReq_mshr_misses::.cpu.data            3                       # number of LoadLockedReq MSHR misses
system.cpu.dcache.LoadLockedReq_mshr_misses::total            3                       # number of LoadLockedReq MSHR misses
system.cpu.dcache.LoadLockedReq_mshr_miss_latency::.cpu.data       201000                       # number of LoadLockedReq MSHR miss cycles
system.cpu.dcache.LoadLockedReq_mshr_miss_latency::total       201000                       # number of LoadLockedReq MSHR miss cycles
system.cpu.dcache.LoadLockedReq_mshr_miss_rate::.cpu.data     0.009677                       # mshr miss rate for LoadLockedReq accesses
system.cpu.dcache.LoadLockedReq_mshr_miss_rate::total     0.009677                       # mshr miss rate for LoadLockedReq accesses
system.cpu.dcache.LoadLockedReq_avg_mshr_miss_latency::.cpu.data        67000                       # average LoadLockedReq mshr miss latency
system.cpu.dcache.LoadLockedReq_avg_mshr_miss_latency::total        67000                       # average LoadLockedReq mshr miss latency
system.cpu.dcache.StoreCondReq_hits::.cpu.data          278                       # number of StoreCondReq hits
system.cpu.dcache.StoreCondReq_hits::total          278                       # number of StoreCondReq hits
system.cpu.dcache.StoreCondReq_accesses::.cpu.data          278                       # number of StoreCondReq accesses(hits+misses)
system.cpu.dcache.StoreCondReq_accesses::total          278                       # number of StoreCondReq accesses(hits+misses)
system.cpu.dcache.power_state.pwrStateResidencyTicks::UNDEFINED   1084939500                       # Cumulative time (in ticks) in various power states
system.cpu.dcache.tags.tagsinuse           464.226803                       # Cycle average of tags in use
system.cpu.dcache.tags.total_refs              617491                       # Total number of references to valid blocks.
system.cpu.dcache.tags.sampled_refs             19929                       # Sample count of references to valid blocks.
system.cpu.dcache.tags.avg_refs             30.984545                       # Average number of references to valid blocks.
system.cpu.dcache.tags.warmup_cycle            195500                       # Cycle when the warmup percentage was hit.
system.cpu.dcache.tags.occ_blocks::.cpu.data   464.226803                       # Average occupied blocks per requestor
system.cpu.dcache.tags.occ_percent::.cpu.data     0.906693                       # Average percentage of cache occupancy
system.cpu.dcache.tags.occ_percent::total     0.906693                       # Average percentage of cache occupancy
system.cpu.dcache.tags.occ_task_id_blocks::1024          512                       # Occupied blocks per task id
system.cpu.dcache.tags.age_task_id_blocks_1024::0          214                       # Occupied blocks per task id
system.cpu.dcache.tags.age_task_id_blocks_1024::1          298                       # Occupied blocks per task id
system.cpu.dcache.tags.occ_task_id_percent::1024            1                       # Percentage of cache occupancy per task id
system.cpu.dcache.tags.tag_accesses           1495537                       # Number of tag accesses
system.cpu.dcache.tags.data_accesses          1495537                       # Number of data accesses
system.cpu.dcache.tags.power_state.pwrStateResidencyTicks::UNDEFINED   1084939500                       # Cumulative time (in ticks) in various power states
system.cpu.power_state.pwrStateResidencyTicks::ON   1084939500                       # Cumulative time (in ticks) in various power states

---------- End Simulation Statistics   ----------
