
---------- Begin Simulation Statistics ----------
final_tick                               1645064165000                       # Number of ticks from beginning of simulation (restored from checkpoints and never reset)
host_inst_rate                                 108651                       # Simulator instruction rate (inst/s)
host_mem_usage                                1024896                       # Number of bytes of host memory used
host_op_rate                                   191973                       # Simulator op (including micro ops) rate (op/s)
host_seconds                                 18867.71                       # Real time elapsed on the host
host_tick_rate                               20620545                       # Simulator tick rate (ticks/s)
sim_freq                                 1000000000000                       # Frequency of simulated ticks
sim_insts                                  2050000005                       # Number of instructions simulated
sim_ops                                    3622091907                       # Number of ops (including micro ops) simulated
sim_seconds                                  0.389062                       # Number of seconds simulated
sim_ticks                                389062441750                       # Number of ticks simulated
system.cpu.committedInsts                           0                       # Number of instructions committed
system.cpu.committedOps                             0                       # Number of ops (including micro ops) committed
system.cpu.dtb.rdAccesses                           0                       # TLB accesses on read requests
system.cpu.dtb.rdMisses                             0                       # TLB misses on read requests
system.cpu.dtb.wrAccesses                           0                       # TLB accesses on write requests
system.cpu.dtb.wrMisses                             0                       # TLB misses on write requests
system.cpu.idle_fraction                            0                       # Percentage of idle cycles
system.cpu.itb.rdAccesses                           0                       # TLB accesses on read requests
system.cpu.itb.rdMisses                             0                       # TLB misses on read requests
system.cpu.itb.wrAccesses                           0                       # TLB accesses on write requests
system.cpu.itb.wrMisses                             0                       # TLB misses on write requests
system.cpu.not_idle_fraction                        1                       # Percentage of non-idle cycles
system.cpu.numCycles                                0                       # number of cpu cycles simulated
system.cpu.numWorkItemsCompleted                    0                       # number of work items this cpu completed
system.cpu.numWorkItemsStarted                      0                       # number of work items this cpu started
system.cpu.num_busy_cycles                          0                       # Number of busy cycles
system.cpu.num_conditional_control_insts            0                       # number of instructions that are conditional controls
system.cpu.num_fp_alu_accesses                      0                       # Number of float alu accesses
system.cpu.num_fp_insts                             0                       # number of float instructions
system.cpu.num_fp_register_reads                    0                       # number of times the floating registers were read
system.cpu.num_fp_register_writes                   0                       # number of times the floating registers were written
system.cpu.num_func_calls                           0                       # number of times a function call or return occured
system.cpu.num_idle_cycles                          0                       # Number of idle cycles
system.cpu.num_int_alu_accesses                     0                       # Number of integer alu accesses
system.cpu.num_int_insts                            0                       # number of integer instructions
system.cpu.num_int_register_reads                   0                       # number of times the integer registers were read
system.cpu.num_int_register_writes                  0                       # number of times the integer registers were written
system.cpu.num_load_insts                           0                       # Number of load instructions
system.cpu.num_mem_refs                             0                       # number of memory refs
system.cpu.num_store_insts                          0                       # Number of store instructions
system.cpu.num_vec_alu_accesses                     0                       # Number of vector alu accesses
system.cpu.num_vec_insts                            0                       # number of vector instructions
system.cpu.num_vec_register_reads                   0                       # number of times the vector registers were read
system.cpu.num_vec_register_writes                  0                       # number of times the vector registers were written
system.cpu.op_class::No_OpClass                     0                       # Class of executed instruction
system.cpu.op_class::IntAlu                         0                       # Class of executed instruction
system.cpu.op_class::IntMult                        0                       # Class of executed instruction
system.cpu.op_class::IntDiv                         0                       # Class of executed instruction
system.cpu.op_class::FloatAdd                       0                       # Class of executed instruction
system.cpu.op_class::FloatCmp                       0                       # Class of executed instruction
system.cpu.op_class::FloatCvt                       0                       # Class of executed instruction
system.cpu.op_class::FloatMult                      0                       # Class of executed instruction
system.cpu.op_class::FloatMultAcc                   0                       # Class of executed instruction
system.cpu.op_class::FloatDiv                       0                       # Class of executed instruction
system.cpu.op_class::FloatMisc                      0                       # Class of executed instruction
system.cpu.op_class::FloatSqrt                      0                       # Class of executed instruction
system.cpu.op_class::SimdAdd                        0                       # Class of executed instruction
system.cpu.op_class::SimdAddAcc                     0                       # Class of executed instruction
system.cpu.op_class::SimdAlu                        0                       # Class of executed instruction
system.cpu.op_class::SimdCmp                        0                       # Class of executed instruction
system.cpu.op_class::SimdCvt                        0                       # Class of executed instruction
system.cpu.op_class::SimdMisc                       0                       # Class of executed instruction
system.cpu.op_class::SimdMult                       0                       # Class of executed instruction
system.cpu.op_class::SimdMultAcc                    0                       # Class of executed instruction
system.cpu.op_class::SimdShift                      0                       # Class of executed instruction
system.cpu.op_class::SimdShiftAcc                   0                       # Class of executed instruction
system.cpu.op_class::SimdDiv                        0                       # Class of executed instruction
system.cpu.op_class::SimdSqrt                       0                       # Class of executed instruction
system.cpu.op_class::SimdFloatAdd                   0                       # Class of executed instruction
system.cpu.op_class::SimdFloatAlu                   0                       # Class of executed instruction
system.cpu.op_class::SimdFloatCmp                   0                       # Class of executed instruction
system.cpu.op_class::SimdFloatCvt                   0                       # Class of executed instruction
system.cpu.op_class::SimdFloatDiv                   0                       # Class of executed instruction
system.cpu.op_class::SimdFloatMisc                  0                       # Class of executed instruction
system.cpu.op_class::SimdFloatMult                  0                       # Class of executed instruction
system.cpu.op_class::SimdFloatMultAcc               0                       # Class of executed instruction
system.cpu.op_class::SimdFloatSqrt                  0                       # Class of executed instruction
system.cpu.op_class::SimdReduceAdd                  0                       # Class of executed instruction
system.cpu.op_class::SimdReduceAlu                  0                       # Class of executed instruction
system.cpu.op_class::SimdReduceCmp                  0                       # Class of executed instruction
system.cpu.op_class::SimdFloatReduceAdd             0                       # Class of executed instruction
system.cpu.op_class::SimdFloatReduceCmp             0                       # Class of executed instruction
system.cpu.op_class::SimdAes                        0                       # Class of executed instruction
system.cpu.op_class::SimdAesMix                     0                       # Class of executed instruction
system.cpu.op_class::SimdSha1Hash                   0                       # Class of executed instruction
system.cpu.op_class::SimdSha1Hash2                  0                       # Class of executed instruction
system.cpu.op_class::SimdSha256Hash                 0                       # Class of executed instruction
system.cpu.op_class::SimdSha256Hash2                0                       # Class of executed instruction
system.cpu.op_class::SimdShaSigma2                  0                       # Class of executed instruction
system.cpu.op_class::SimdShaSigma3                  0                       # Class of executed instruction
system.cpu.op_class::SimdPredAlu                    0                       # Class of executed instruction
system.cpu.op_class::MemRead                        0                       # Class of executed instruction
system.cpu.op_class::MemWrite                       0                       # Class of executed instruction
system.cpu.op_class::FloatMemRead                   0                       # Class of executed instruction
system.cpu.op_class::FloatMemWrite                  0                       # Class of executed instruction
system.cpu.op_class::IprAccess                      0                       # Class of executed instruction
system.cpu.op_class::InstPrefetch                   0                       # Class of executed instruction
system.cpu.op_class::total                          0                       # Class of executed instruction
system.cpu.workload.numSyscalls                   278                       # Number of system calls
system.membus.snoop_filter.hit_multi_requests            0                       # Number of requests hitting in the snoop filter with multiple (>1) holders of the requested data.
system.membus.snoop_filter.hit_multi_snoops            0                       # Number of snoops hitting in the snoop filter with multiple (>1) holders of the requested data.
system.membus.snoop_filter.hit_single_requests       637088                       # Number of requests hitting in the snoop filter with a single holder of the requested data.
system.membus.snoop_filter.hit_single_snoops            0                       # Number of snoops hitting in the snoop filter with a single holder of the requested data.
system.membus.snoop_filter.tot_requests       1274136                       # Total number of requests made to the snoop filter.
system.membus.snoop_filter.tot_snoops               0                       # Total number of snoops made to the snoop filter.
system.switch_cpus.committedInsts                   0                       # Number of instructions committed
system.switch_cpus.committedOps                     0                       # Number of ops (including micro ops) committed
system.switch_cpus.dtb.rdAccesses                   0                       # TLB accesses on read requests
system.switch_cpus.dtb.rdMisses                     0                       # TLB misses on read requests
system.switch_cpus.dtb.wrAccesses                   0                       # TLB accesses on write requests
system.switch_cpus.dtb.wrMisses                     0                       # TLB misses on write requests
system.switch_cpus.idle_fraction                    0                       # Percentage of idle cycles
system.switch_cpus.itb.rdAccesses                   0                       # TLB accesses on read requests
system.switch_cpus.itb.rdMisses                     0                       # TLB misses on read requests
system.switch_cpus.itb.wrAccesses                   0                       # TLB accesses on write requests
system.switch_cpus.itb.wrMisses                     0                       # TLB misses on write requests
system.switch_cpus.not_idle_fraction                1                       # Percentage of non-idle cycles
system.switch_cpus.numCycles                        0                       # number of cpu cycles simulated
system.switch_cpus.numWorkItemsCompleted            0                       # number of work items this cpu completed
system.switch_cpus.numWorkItemsStarted              0                       # number of work items this cpu started
system.switch_cpus.num_busy_cycles                  0                       # Number of busy cycles
system.switch_cpus.num_conditional_control_insts            0                       # number of instructions that are conditional controls
system.switch_cpus.num_fp_alu_accesses              0                       # Number of float alu accesses
system.switch_cpus.num_fp_insts                     0                       # number of float instructions
system.switch_cpus.num_fp_register_reads            0                       # number of times the floating registers were read
system.switch_cpus.num_fp_register_writes            0                       # number of times the floating registers were written
system.switch_cpus.num_func_calls                   0                       # number of times a function call or return occured
system.switch_cpus.num_idle_cycles                  0                       # Number of idle cycles
system.switch_cpus.num_int_alu_accesses             0                       # Number of integer alu accesses
system.switch_cpus.num_int_insts                    0                       # number of integer instructions
system.switch_cpus.num_int_register_reads            0                       # number of times the integer registers were read
system.switch_cpus.num_int_register_writes            0                       # number of times the integer registers were written
system.switch_cpus.num_load_insts                   0                       # Number of load instructions
system.switch_cpus.num_mem_refs                     0                       # number of memory refs
system.switch_cpus.num_store_insts                  0                       # Number of store instructions
system.switch_cpus.num_vec_alu_accesses             0                       # Number of vector alu accesses
system.switch_cpus.num_vec_insts                    0                       # number of vector instructions
system.switch_cpus.num_vec_register_reads            0                       # number of times the vector registers were read
system.switch_cpus.num_vec_register_writes            0                       # number of times the vector registers were written
system.switch_cpus.op_class::No_OpClass             0                       # Class of executed instruction
system.switch_cpus.op_class::IntAlu                 0                       # Class of executed instruction
system.switch_cpus.op_class::IntMult                0                       # Class of executed instruction
system.switch_cpus.op_class::IntDiv                 0                       # Class of executed instruction
system.switch_cpus.op_class::FloatAdd               0                       # Class of executed instruction
system.switch_cpus.op_class::FloatCmp               0                       # Class of executed instruction
system.switch_cpus.op_class::FloatCvt               0                       # Class of executed instruction
system.switch_cpus.op_class::FloatMult              0                       # Class of executed instruction
system.switch_cpus.op_class::FloatMultAcc            0                       # Class of executed instruction
system.switch_cpus.op_class::FloatDiv               0                       # Class of executed instruction
system.switch_cpus.op_class::FloatMisc              0                       # Class of executed instruction
system.switch_cpus.op_class::FloatSqrt              0                       # Class of executed instruction
system.switch_cpus.op_class::SimdAdd                0                       # Class of executed instruction
system.switch_cpus.op_class::SimdAddAcc             0                       # Class of executed instruction
system.switch_cpus.op_class::SimdAlu                0                       # Class of executed instruction
system.switch_cpus.op_class::SimdCmp                0                       # Class of executed instruction
system.switch_cpus.op_class::SimdCvt                0                       # Class of executed instruction
system.switch_cpus.op_class::SimdMisc               0                       # Class of executed instruction
system.switch_cpus.op_class::SimdMult               0                       # Class of executed instruction
system.switch_cpus.op_class::SimdMultAcc            0                       # Class of executed instruction
system.switch_cpus.op_class::SimdShift              0                       # Class of executed instruction
system.switch_cpus.op_class::SimdShiftAcc            0                       # Class of executed instruction
system.switch_cpus.op_class::SimdDiv                0                       # Class of executed instruction
system.switch_cpus.op_class::SimdSqrt               0                       # Class of executed instruction
system.switch_cpus.op_class::SimdFloatAdd            0                       # Class of executed instruction
system.switch_cpus.op_class::SimdFloatAlu            0                       # Class of executed instruction
system.switch_cpus.op_class::SimdFloatCmp            0                       # Class of executed instruction
system.switch_cpus.op_class::SimdFloatCvt            0                       # Class of executed instruction
system.switch_cpus.op_class::SimdFloatDiv            0                       # Class of executed instruction
system.switch_cpus.op_class::SimdFloatMisc            0                       # Class of executed instruction
system.switch_cpus.op_class::SimdFloatMult            0                       # Class of executed instruction
system.switch_cpus.op_class::SimdFloatMultAcc            0                       # Class of executed instruction
system.switch_cpus.op_class::SimdFloatSqrt            0                       # Class of executed instruction
system.switch_cpus.op_class::SimdReduceAdd            0                       # Class of executed instruction
system.switch_cpus.op_class::SimdReduceAlu            0                       # Class of executed instruction
system.switch_cpus.op_class::SimdReduceCmp            0                       # Class of executed instruction
system.switch_cpus.op_class::SimdFloatReduceAdd            0                       # Class of executed instruction
system.switch_cpus.op_class::SimdFloatReduceCmp            0                       # Class of executed instruction
system.switch_cpus.op_class::SimdAes                0                       # Class of executed instruction
system.switch_cpus.op_class::SimdAesMix             0                       # Class of executed instruction
system.switch_cpus.op_class::SimdSha1Hash            0                       # Class of executed instruction
system.switch_cpus.op_class::SimdSha1Hash2            0                       # Class of executed instruction
system.switch_cpus.op_class::SimdSha256Hash            0                       # Class of executed instruction
system.switch_cpus.op_class::SimdSha256Hash2            0                       # Class of executed instruction
system.switch_cpus.op_class::SimdShaSigma2            0                       # Class of executed instruction
system.switch_cpus.op_class::SimdShaSigma3            0                       # Class of executed instruction
system.switch_cpus.op_class::SimdPredAlu            0                       # Class of executed instruction
system.switch_cpus.op_class::MemRead                0                       # Class of executed instruction
system.switch_cpus.op_class::MemWrite               0                       # Class of executed instruction
system.switch_cpus.op_class::FloatMemRead            0                       # Class of executed instruction
system.switch_cpus.op_class::FloatMemWrite            0                       # Class of executed instruction
system.switch_cpus.op_class::IprAccess              0                       # Class of executed instruction
system.switch_cpus.op_class::InstPrefetch            0                       # Class of executed instruction
system.switch_cpus.op_class::total                  0                       # Class of executed instruction
system.switch_cpus_1.branchPred.BTBCorrect            0                       # Number of correct BTB predictions (this stat may not work properly.
system.switch_cpus_1.branchPred.BTBHitPct          nan                       # BTB Hit Percentage
system.switch_cpus_1.branchPred.BTBHits             0                       # Number of BTB hits
system.switch_cpus_1.branchPred.BTBLookups            0                       # Number of BTB lookups
system.switch_cpus_1.branchPred.RASInCorrect          547                       # Number of incorrect RAS predictions.
system.switch_cpus_1.branchPred.condIncorrect     10000762                       # Number of conditional branches incorrect
system.switch_cpus_1.branchPred.condPredicted    152559436                       # Number of conditional branches predicted
system.switch_cpus_1.branchPred.indirectHits     44351064                       # Number of indirect target hits.
system.switch_cpus_1.branchPred.indirectLookups     71513686                       # Number of indirect predictor lookups.
system.switch_cpus_1.branchPred.indirectMisses     27162622                       # Number of indirect misses.
system.switch_cpus_1.branchPred.lookups     163660604                       # Number of BP lookups
system.switch_cpus_1.branchPred.loop_predictor.loopPredictorCorrect       316901                       # Number of times the loop predictor is the provider and the prediction is correct
system.switch_cpus_1.branchPred.loop_predictor.loopPredictorWrong         6455                       # Number of times the loop predictor is the provider and the prediction is wrong
system.switch_cpus_1.branchPred.statistical_corrector.scPredictorCorrect       408641                       # Number of time the SC predictor is the provider and the prediction is correct
system.switch_cpus_1.branchPred.statistical_corrector.scPredictorWrong      1065876                       # Number of time the SC predictor is the provider and the prediction is wrong
system.switch_cpus_1.branchPred.tage.bimodalAltMatchProviderCorrect        16142                       # Number of times TAGE Alt Match is the bimodal and it is the provider and the prediction is correct
system.switch_cpus_1.branchPred.tage.bimodalAltMatchProviderWrong         2227                       # Number of times TAGE Alt Match is the bimodal and it is the provider and the prediction is wrong
system.switch_cpus_1.branchPred.tage.tageAltMatchProvider::0      7659287                       # TAGE provider for alt match
system.switch_cpus_1.branchPred.tage.tageAltMatchProvider::1            0                       # TAGE provider for alt match
system.switch_cpus_1.branchPred.tage.tageAltMatchProvider::2       997795                       # TAGE provider for alt match
system.switch_cpus_1.branchPred.tage.tageAltMatchProvider::3            0                       # TAGE provider for alt match
system.switch_cpus_1.branchPred.tage.tageAltMatchProvider::4      1112996                       # TAGE provider for alt match
system.switch_cpus_1.branchPred.tage.tageAltMatchProvider::5            0                       # TAGE provider for alt match
system.switch_cpus_1.branchPred.tage.tageAltMatchProvider::6       958856                       # TAGE provider for alt match
system.switch_cpus_1.branchPred.tage.tageAltMatchProvider::7      2381365                       # TAGE provider for alt match
system.switch_cpus_1.branchPred.tage.tageAltMatchProvider::8      1979651                       # TAGE provider for alt match
system.switch_cpus_1.branchPred.tage.tageAltMatchProvider::9      3359755                       # TAGE provider for alt match
system.switch_cpus_1.branchPred.tage.tageAltMatchProvider::10      1913633                       # TAGE provider for alt match
system.switch_cpus_1.branchPred.tage.tageAltMatchProvider::11       845390                       # TAGE provider for alt match
system.switch_cpus_1.branchPred.tage.tageAltMatchProvider::12       757733                       # TAGE provider for alt match
system.switch_cpus_1.branchPred.tage.tageAltMatchProvider::13       923546                       # TAGE provider for alt match
system.switch_cpus_1.branchPred.tage.tageAltMatchProvider::14       966613                       # TAGE provider for alt match
system.switch_cpus_1.branchPred.tage.tageAltMatchProvider::15       938378                       # TAGE provider for alt match
system.switch_cpus_1.branchPred.tage.tageAltMatchProvider::16       760211                       # TAGE provider for alt match
system.switch_cpus_1.branchPred.tage.tageAltMatchProvider::17       938983                       # TAGE provider for alt match
system.switch_cpus_1.branchPred.tage.tageAltMatchProvider::18       717737                       # TAGE provider for alt match
system.switch_cpus_1.branchPred.tage.tageAltMatchProvider::19       846266                       # TAGE provider for alt match
system.switch_cpus_1.branchPred.tage.tageAltMatchProvider::20       508533                       # TAGE provider for alt match
system.switch_cpus_1.branchPred.tage.tageAltMatchProvider::21            0                       # TAGE provider for alt match
system.switch_cpus_1.branchPred.tage.tageAltMatchProvider::22       646627                       # TAGE provider for alt match
system.switch_cpus_1.branchPred.tage.tageAltMatchProvider::23            0                       # TAGE provider for alt match
system.switch_cpus_1.branchPred.tage.tageAltMatchProvider::24       390049                       # TAGE provider for alt match
system.switch_cpus_1.branchPred.tage.tageAltMatchProvider::25            0                       # TAGE provider for alt match
system.switch_cpus_1.branchPred.tage.tageAltMatchProvider::26       220395                       # TAGE provider for alt match
system.switch_cpus_1.branchPred.tage.tageAltMatchProvider::27            0                       # TAGE provider for alt match
system.switch_cpus_1.branchPred.tage.tageAltMatchProvider::28       243050                       # TAGE provider for alt match
system.switch_cpus_1.branchPred.tage.tageAltMatchProvider::29            0                       # TAGE provider for alt match
system.switch_cpus_1.branchPred.tage.tageAltMatchProvider::30            0                       # TAGE provider for alt match
system.switch_cpus_1.branchPred.tage.tageAltMatchProviderCorrect       658058                       # Number of times TAGE Alt Match is the provider and the prediction is correct
system.switch_cpus_1.branchPred.tage.tageAltMatchProviderWouldHaveHit       347618                       # Number of times TAGE Longest Match is the provider, the prediction is wrong and Alt Match prediction was correct
system.switch_cpus_1.branchPred.tage.tageAltMatchProviderWrong       288392                       # Number of times TAGE Alt Match is the provider and the prediction is wrong
system.switch_cpus_1.branchPred.tage.tageBimodalProviderCorrect     56372712                       # Number of times there are no hits on the TAGE tables and the bimodal prediction is correct
system.switch_cpus_1.branchPred.tage.tageBimodalProviderWrong         4309                       # Number of times there are no hits on the TAGE tables and the bimodal prediction is wrong
system.switch_cpus_1.branchPred.tage.tageLongestMatchProvider::0            0                       # TAGE provider for longest match
system.switch_cpus_1.branchPred.tage.tageLongestMatchProvider::1            0                       # TAGE provider for longest match
system.switch_cpus_1.branchPred.tage.tageLongestMatchProvider::2       953118                       # TAGE provider for longest match
system.switch_cpus_1.branchPred.tage.tageLongestMatchProvider::3            0                       # TAGE provider for longest match
system.switch_cpus_1.branchPred.tage.tageLongestMatchProvider::4       802632                       # TAGE provider for longest match
system.switch_cpus_1.branchPred.tage.tageLongestMatchProvider::5            0                       # TAGE provider for longest match
system.switch_cpus_1.branchPred.tage.tageLongestMatchProvider::6       651581                       # TAGE provider for longest match
system.switch_cpus_1.branchPred.tage.tageLongestMatchProvider::7      1986680                       # TAGE provider for longest match
system.switch_cpus_1.branchPred.tage.tageLongestMatchProvider::8      1282189                       # TAGE provider for longest match
system.switch_cpus_1.branchPred.tage.tageLongestMatchProvider::9      4292950                       # TAGE provider for longest match
system.switch_cpus_1.branchPred.tage.tageLongestMatchProvider::10      3759136                       # TAGE provider for longest match
system.switch_cpus_1.branchPred.tage.tageLongestMatchProvider::11       581072                       # TAGE provider for longest match
system.switch_cpus_1.branchPred.tage.tageLongestMatchProvider::12      1211879                       # TAGE provider for longest match
system.switch_cpus_1.branchPred.tage.tageLongestMatchProvider::13      1099053                       # TAGE provider for longest match
system.switch_cpus_1.branchPred.tage.tageLongestMatchProvider::14      1093587                       # TAGE provider for longest match
system.switch_cpus_1.branchPred.tage.tageLongestMatchProvider::15      1473796                       # TAGE provider for longest match
system.switch_cpus_1.branchPred.tage.tageLongestMatchProvider::16      1033555                       # TAGE provider for longest match
system.switch_cpus_1.branchPred.tage.tageLongestMatchProvider::17      1474637                       # TAGE provider for longest match
system.switch_cpus_1.branchPred.tage.tageLongestMatchProvider::18       822703                       # TAGE provider for longest match
system.switch_cpus_1.branchPred.tage.tageLongestMatchProvider::19      1627500                       # TAGE provider for longest match
system.switch_cpus_1.branchPred.tage.tageLongestMatchProvider::20      1298215                       # TAGE provider for longest match
system.switch_cpus_1.branchPred.tage.tageLongestMatchProvider::21            0                       # TAGE provider for longest match
system.switch_cpus_1.branchPred.tage.tageLongestMatchProvider::22      1407878                       # TAGE provider for longest match
system.switch_cpus_1.branchPred.tage.tageLongestMatchProvider::23            0                       # TAGE provider for longest match
system.switch_cpus_1.branchPred.tage.tageLongestMatchProvider::24      1221176                       # TAGE provider for longest match
system.switch_cpus_1.branchPred.tage.tageLongestMatchProvider::25            0                       # TAGE provider for longest match
system.switch_cpus_1.branchPred.tage.tageLongestMatchProvider::26       778548                       # TAGE provider for longest match
system.switch_cpus_1.branchPred.tage.tageLongestMatchProvider::27            0                       # TAGE provider for longest match
system.switch_cpus_1.branchPred.tage.tageLongestMatchProvider::28       659380                       # TAGE provider for longest match
system.switch_cpus_1.branchPred.tage.tageLongestMatchProvider::29            0                       # TAGE provider for longest match
system.switch_cpus_1.branchPred.tage.tageLongestMatchProvider::30       555584                       # TAGE provider for longest match
system.switch_cpus_1.branchPred.tage.tageLongestMatchProviderCorrect     27738964                       # Number of times TAGE Longest Match is the provider and the prediction is correct
system.switch_cpus_1.branchPred.tage.tageLongestMatchProviderWouldHaveHit       168422                       # Number of times TAGE Alt Match is the provider, the prediction is wrong and Longest Match prediction was correct
system.switch_cpus_1.branchPred.tage.tageLongestMatchProviderWrong      1381435                       # Number of times TAGE Longest Match is the provider and the prediction is wrong
system.switch_cpus_1.branchPred.usedRAS       4137119                       # Number of times the RAS was used to get a target.
system.switch_cpus_1.branchPredindirectMispredicted      7401965                       # Number of mispredicted indirect branches.
system.switch_cpus_1.cc_regfile_reads       578780045                       # number of cc regfile reads
system.switch_cpus_1.cc_regfile_writes      411678224                       # number of cc regfile writes
system.switch_cpus_1.commit.amos                    0                       # Number of atomic instructions committed
system.switch_cpus_1.commit.branchMispredicts     10021628                       # The number of times a branch was mispredicted
system.switch_cpus_1.commit.branches         93355088                       # Number of branches committed
system.switch_cpus_1.commit.bw_lim_events     96343806                       # number cycles where commit BW limit reached
system.switch_cpus_1.commit.commitNonSpecStalls          296                       # The number of times commit has been forced to stall to communicate backwards
system.switch_cpus_1.commit.commitSquashedInsts    329298841                       # The number of squashed insts skipped by commit
system.switch_cpus_1.commit.committedInsts   1000000003                       # Number of instructions committed
system.switch_cpus_1.commit.committedOps   1588221848                       # Number of ops (including micro ops) committed
system.switch_cpus_1.commit.committed_per_cycle::samples    730860031                       # Number of insts commited each cycle
system.switch_cpus_1.commit.committed_per_cycle::mean     2.173086                       # Number of insts commited each cycle
system.switch_cpus_1.commit.committed_per_cycle::stdev     2.806211                       # Number of insts commited each cycle
system.switch_cpus_1.commit.committed_per_cycle::underflows            0      0.00%      0.00% # Number of insts commited each cycle
system.switch_cpus_1.commit.committed_per_cycle::0    325221065     44.50%     44.50% # Number of insts commited each cycle
system.switch_cpus_1.commit.committed_per_cycle::1    103933102     14.22%     58.72% # Number of insts commited each cycle
system.switch_cpus_1.commit.committed_per_cycle::2     66898682      9.15%     67.87% # Number of insts commited each cycle
system.switch_cpus_1.commit.committed_per_cycle::3     60836680      8.32%     76.20% # Number of insts commited each cycle
system.switch_cpus_1.commit.committed_per_cycle::4     29017929      3.97%     80.17% # Number of insts commited each cycle
system.switch_cpus_1.commit.committed_per_cycle::5     21942673      3.00%     83.17% # Number of insts commited each cycle
system.switch_cpus_1.commit.committed_per_cycle::6     15216845      2.08%     85.25% # Number of insts commited each cycle
system.switch_cpus_1.commit.committed_per_cycle::7     11449249      1.57%     86.82% # Number of insts commited each cycle
system.switch_cpus_1.commit.committed_per_cycle::8     96343806     13.18%    100.00% # Number of insts commited each cycle
system.switch_cpus_1.commit.committed_per_cycle::overflows            0      0.00%    100.00% # Number of insts commited each cycle
system.switch_cpus_1.commit.committed_per_cycle::min_value            0                       # Number of insts commited each cycle
system.switch_cpus_1.commit.committed_per_cycle::max_value            8                       # Number of insts commited each cycle
system.switch_cpus_1.commit.committed_per_cycle::total    730860031                       # Number of insts commited each cycle
system.switch_cpus_1.commit.fp_insts        736513420                       # Number of committed floating point instructions.
system.switch_cpus_1.commit.function_calls      2550542                       # Number of function calls committed.
system.switch_cpus_1.commit.int_insts      1038783209                       # Number of committed integer instructions.
system.switch_cpus_1.commit.loads           242962020                       # Number of loads committed
system.switch_cpus_1.commit.membars                 0                       # Number of memory barriers committed
system.switch_cpus_1.commit.op_class_0::No_OpClass      2815232      0.18%      0.18% # Class of committed instruction
system.switch_cpus_1.commit.op_class_0::IntAlu    809570711     50.97%     51.15% # Class of committed instruction
system.switch_cpus_1.commit.op_class_0::IntMult       509917      0.03%     51.18% # Class of committed instruction
system.switch_cpus_1.commit.op_class_0::IntDiv      4249994      0.27%     51.45% # Class of committed instruction
system.switch_cpus_1.commit.op_class_0::FloatAdd    109285468      6.88%     58.33% # Class of committed instruction
system.switch_cpus_1.commit.op_class_0::FloatCmp            0      0.00%     58.33% # Class of committed instruction
system.switch_cpus_1.commit.op_class_0::FloatCvt           32      0.00%     58.33% # Class of committed instruction
system.switch_cpus_1.commit.op_class_0::FloatMult            0      0.00%     58.33% # Class of committed instruction
system.switch_cpus_1.commit.op_class_0::FloatMultAcc            0      0.00%     58.33% # Class of committed instruction
system.switch_cpus_1.commit.op_class_0::FloatDiv            0      0.00%     58.33% # Class of committed instruction
system.switch_cpus_1.commit.op_class_0::FloatMisc            0      0.00%     58.33% # Class of committed instruction
system.switch_cpus_1.commit.op_class_0::FloatSqrt            0      0.00%     58.33% # Class of committed instruction
system.switch_cpus_1.commit.op_class_0::SimdAdd            0      0.00%     58.33% # Class of committed instruction
system.switch_cpus_1.commit.op_class_0::SimdAddAcc            0      0.00%     58.33% # Class of committed instruction
system.switch_cpus_1.commit.op_class_0::SimdAlu       324302      0.02%     58.35% # Class of committed instruction
system.switch_cpus_1.commit.op_class_0::SimdCmp            0      0.00%     58.35% # Class of committed instruction
system.switch_cpus_1.commit.op_class_0::SimdCvt       249720      0.02%     58.37% # Class of committed instruction
system.switch_cpus_1.commit.op_class_0::SimdMisc       250519      0.02%     58.38% # Class of committed instruction
system.switch_cpus_1.commit.op_class_0::SimdMult            0      0.00%     58.38% # Class of committed instruction
system.switch_cpus_1.commit.op_class_0::SimdMultAcc            0      0.00%     58.38% # Class of committed instruction
system.switch_cpus_1.commit.op_class_0::SimdShift            0      0.00%     58.38% # Class of committed instruction
system.switch_cpus_1.commit.op_class_0::SimdShiftAcc            0      0.00%     58.38% # Class of committed instruction
system.switch_cpus_1.commit.op_class_0::SimdDiv            0      0.00%     58.38% # Class of committed instruction
system.switch_cpus_1.commit.op_class_0::SimdSqrt            0      0.00%     58.38% # Class of committed instruction
system.switch_cpus_1.commit.op_class_0::SimdFloatAdd    153382139      9.66%     68.04% # Class of committed instruction
system.switch_cpus_1.commit.op_class_0::SimdFloatAlu            0      0.00%     68.04% # Class of committed instruction
system.switch_cpus_1.commit.op_class_0::SimdFloatCmp            0      0.00%     68.04% # Class of committed instruction
system.switch_cpus_1.commit.op_class_0::SimdFloatCvt     30122411      1.90%     69.94% # Class of committed instruction
system.switch_cpus_1.commit.op_class_0::SimdFloatDiv            0      0.00%     69.94% # Class of committed instruction
system.switch_cpus_1.commit.op_class_0::SimdFloatMisc            0      0.00%     69.94% # Class of committed instruction
system.switch_cpus_1.commit.op_class_0::SimdFloatMult    145223204      9.14%     79.08% # Class of committed instruction
system.switch_cpus_1.commit.op_class_0::SimdFloatMultAcc            0      0.00%     79.08% # Class of committed instruction
system.switch_cpus_1.commit.op_class_0::SimdFloatSqrt            0      0.00%     79.08% # Class of committed instruction
system.switch_cpus_1.commit.op_class_0::SimdReduceAdd            0      0.00%     79.08% # Class of committed instruction
system.switch_cpus_1.commit.op_class_0::SimdReduceAlu            0      0.00%     79.08% # Class of committed instruction
system.switch_cpus_1.commit.op_class_0::SimdReduceCmp            0      0.00%     79.08% # Class of committed instruction
system.switch_cpus_1.commit.op_class_0::SimdFloatReduceAdd            0      0.00%     79.08% # Class of committed instruction
system.switch_cpus_1.commit.op_class_0::SimdFloatReduceCmp            0      0.00%     79.08% # Class of committed instruction
system.switch_cpus_1.commit.op_class_0::SimdAes            0      0.00%     79.08% # Class of committed instruction
system.switch_cpus_1.commit.op_class_0::SimdAesMix            0      0.00%     79.08% # Class of committed instruction
system.switch_cpus_1.commit.op_class_0::SimdSha1Hash            0      0.00%     79.08% # Class of committed instruction
system.switch_cpus_1.commit.op_class_0::SimdSha1Hash2            0      0.00%     79.08% # Class of committed instruction
system.switch_cpus_1.commit.op_class_0::SimdSha256Hash            0      0.00%     79.08% # Class of committed instruction
system.switch_cpus_1.commit.op_class_0::SimdSha256Hash2            0      0.00%     79.08% # Class of committed instruction
system.switch_cpus_1.commit.op_class_0::SimdShaSigma2            0      0.00%     79.08% # Class of committed instruction
system.switch_cpus_1.commit.op_class_0::SimdShaSigma3            0      0.00%     79.08% # Class of committed instruction
system.switch_cpus_1.commit.op_class_0::SimdPredAlu            0      0.00%     79.08% # Class of committed instruction
system.switch_cpus_1.commit.op_class_0::MemRead     98880737      6.23%     85.31% # Class of committed instruction
system.switch_cpus_1.commit.op_class_0::MemWrite     43203184      2.72%     88.03% # Class of committed instruction
system.switch_cpus_1.commit.op_class_0::FloatMemRead    144081283      9.07%     97.10% # Class of committed instruction
system.switch_cpus_1.commit.op_class_0::FloatMemWrite     46072995      2.90%    100.00% # Class of committed instruction
system.switch_cpus_1.commit.op_class_0::IprAccess            0      0.00%    100.00% # Class of committed instruction
system.switch_cpus_1.commit.op_class_0::InstPrefetch            0      0.00%    100.00% # Class of committed instruction
system.switch_cpus_1.commit.op_class_0::total   1588221848                       # Class of committed instruction
system.switch_cpus_1.commit.refs            332238199                       # Number of memory references committed
system.switch_cpus_1.commit.swp_count               0                       # Number of s/w prefetches committed
system.switch_cpus_1.commit.vec_insts               0                       # Number of committed Vector instructions.
system.switch_cpus_1.committedInsts        1000000003                       # Number of Instructions Simulated
system.switch_cpus_1.committedOps          1588221848                       # Number of Ops (including micro ops) Simulated
system.switch_cpus_1.cpi                     0.778125                       # CPI: Cycles Per Instruction
system.switch_cpus_1.cpi_total               0.778125                       # CPI: Total CPI of All Threads
system.switch_cpus_1.decode.BlockedCycles    386535828                       # Number of cycles decode is blocked
system.switch_cpus_1.decode.DecodedInsts   2050015151                       # Number of instructions handled by decode
system.switch_cpus_1.decode.IdleCycles      106930630                       # Number of cycles decode is idle
system.switch_cpus_1.decode.RunCycles       159162384                       # Number of cycles decode is running
system.switch_cpus_1.decode.SquashCycles     10041146                       # Number of cycles decode is squashing
system.switch_cpus_1.decode.UnblockCycles    115087812                       # Number of cycles decode is unblocking
system.switch_cpus_1.dtb.rdAccesses         256439536                       # TLB accesses on read requests
system.switch_cpus_1.dtb.rdMisses              391656                       # TLB misses on read requests
system.switch_cpus_1.dtb.wrAccesses          93813868                       # TLB accesses on write requests
system.switch_cpus_1.dtb.wrMisses              282649                       # TLB misses on write requests
system.switch_cpus_1.fetch.Branches         163660604                       # Number of branches that fetch encountered
system.switch_cpus_1.fetch.CacheLines       134068270                       # Number of cache lines fetched
system.switch_cpus_1.fetch.Cycles           619236710                       # Number of cycles fetch has run and was not squashing or blocked
system.switch_cpus_1.fetch.IcacheSquashes      2404043                       # Number of outstanding Icache misses that were squashed
system.switch_cpus_1.fetch.IcacheWaitRetryStallCycles           88                       # Number of stall cycles due to full MSHR
system.switch_cpus_1.fetch.Insts           1351343355                       # Number of instructions fetch has processed
system.switch_cpus_1.fetch.MiscStallCycles        39970                       # Number of cycles fetch has spent waiting on interrupts, or bad addresses, or out of MSHRs
system.switch_cpus_1.fetch.PendingTrapStallCycles       377281                       # Number of stall cycles due to pending traps
system.switch_cpus_1.fetch.SquashCycles      20082292                       # Number of cycles fetch has spent squashing
system.switch_cpus_1.fetch.TlbCycles               12                       # Number of cycles fetch has spent waiting for tlb
system.switch_cpus_1.fetch.branchRate        0.210327                       # Number of branch fetches per cycle
system.switch_cpus_1.fetch.icacheStallCycles    148062603                       # Number of cycles fetch is stalled on an Icache miss
system.switch_cpus_1.fetch.predictedBranches     48488183                       # Number of branches that fetch has predicted taken
system.switch_cpus_1.fetch.rate              1.736666                       # Number of inst fetches per cycle
system.switch_cpus_1.fetch.rateDist::samples    777757810                       # Number of instructions fetched each cycle (Total)
system.switch_cpus_1.fetch.rateDist::mean     2.844132                       # Number of instructions fetched each cycle (Total)
system.switch_cpus_1.fetch.rateDist::stdev     3.528201                       # Number of instructions fetched each cycle (Total)
system.switch_cpus_1.fetch.rateDist::underflows            0      0.00%      0.00% # Number of instructions fetched each cycle (Total)
system.switch_cpus_1.fetch.rateDist::0      425729811     54.74%     54.74% # Number of instructions fetched each cycle (Total)
system.switch_cpus_1.fetch.rateDist::1       22311952      2.87%     57.61% # Number of instructions fetched each cycle (Total)
system.switch_cpus_1.fetch.rateDist::2       28622315      3.68%     61.29% # Number of instructions fetched each cycle (Total)
system.switch_cpus_1.fetch.rateDist::3       14438448      1.86%     63.14% # Number of instructions fetched each cycle (Total)
system.switch_cpus_1.fetch.rateDist::4       21841990      2.81%     65.95% # Number of instructions fetched each cycle (Total)
system.switch_cpus_1.fetch.rateDist::5       19264019      2.48%     68.43% # Number of instructions fetched each cycle (Total)
system.switch_cpus_1.fetch.rateDist::6       21844392      2.81%     71.24% # Number of instructions fetched each cycle (Total)
system.switch_cpus_1.fetch.rateDist::7       15219592      1.96%     73.19% # Number of instructions fetched each cycle (Total)
system.switch_cpus_1.fetch.rateDist::8      208485291     26.81%    100.00% # Number of instructions fetched each cycle (Total)
system.switch_cpus_1.fetch.rateDist::overflows            0      0.00%    100.00% # Number of instructions fetched each cycle (Total)
system.switch_cpus_1.fetch.rateDist::min_value            0                       # Number of instructions fetched each cycle (Total)
system.switch_cpus_1.fetch.rateDist::max_value            8                       # Number of instructions fetched each cycle (Total)
system.switch_cpus_1.fetch.rateDist::total    777757810                       # Number of instructions fetched each cycle (Total)
system.switch_cpus_1.fp_regfile_reads      1232636972                       # number of floating regfile reads
system.switch_cpus_1.fp_regfile_writes      688327142                       # number of floating regfile writes
system.switch_cpus_1.idleCycles                367073                       # Total number of cycles that the CPU has spent unscheduled due to idling
system.switch_cpus_1.iew.branchMispredicts     12811059                       # Number of branch mispredicts detected at execute
system.switch_cpus_1.iew.exec_branches      103995926                       # Number of branches executed
system.switch_cpus_1.iew.exec_nop                   0                       # number of nop insts executed
system.switch_cpus_1.iew.exec_rate           2.261550                       # Inst execution rate
system.switch_cpus_1.iew.exec_refs          386265148                       # number of memory reference insts executed
system.switch_cpus_1.iew.exec_stores         93813868                       # Number of stores executed
system.switch_cpus_1.iew.exec_swp                   0                       # number of swp insts executed
system.switch_cpus_1.iew.iewBlockCycles      62693491                       # Number of cycles IEW is blocking
system.switch_cpus_1.iew.iewDispLoadInsts    280549852                       # Number of dispatched load instructions
system.switch_cpus_1.iew.iewDispNonSpecInsts        53300                       # Number of dispatched non-speculative instructions
system.switch_cpus_1.iew.iewDispSquashedInsts       228984                       # Number of squashed instructions skipped by dispatch
system.switch_cpus_1.iew.iewDispStoreInsts    104781808                       # Number of dispatched store instructions
system.switch_cpus_1.iew.iewDispatchedInsts   1917599509                       # Number of instructions dispatched to IQ
system.switch_cpus_1.iew.iewExecLoadInsts    292451280                       # Number of load instructions executed
system.switch_cpus_1.iew.iewExecSquashedInsts      7841724                       # Number of squashed instructions skipped in execute
system.switch_cpus_1.iew.iewExecutedInsts   1759768108                       # Number of executed instructions
system.switch_cpus_1.iew.iewIQFullEvents      1274815                       # Number of times the IQ has become full, causing a stall
system.switch_cpus_1.iew.iewIdleCycles              0                       # Number of cycles IEW is idle
system.switch_cpus_1.iew.iewLSQFullEvents      4449854                       # Number of times the LSQ has become full, causing a stall
system.switch_cpus_1.iew.iewSquashCycles     10041146                       # Number of cycles IEW is squashing
system.switch_cpus_1.iew.iewUnblockCycles      6917507                       # Number of cycles IEW is unblocking
system.switch_cpus_1.iew.lsq.thread0.blockedLoads            0                       # Number of blocked loads due to partial load-store forwarding
system.switch_cpus_1.iew.lsq.thread0.cacheBlocked        44447                       # Number of times an access to memory failed due to the cache being blocked
system.switch_cpus_1.iew.lsq.thread0.forwLoads     13600998                       # Number of loads that had data forwarded from stores
system.switch_cpus_1.iew.lsq.thread0.ignoredResponses          993                       # Number of memory responses ignored because the instruction is squashed
system.switch_cpus_1.iew.lsq.thread0.invAddrLoads            0                       # Number of loads ignored due to an invalid address
system.switch_cpus_1.iew.lsq.thread0.invAddrSwpfs            0                       # Number of software prefetches ignored due to an invalid address
system.switch_cpus_1.iew.lsq.thread0.memOrderViolation        34407                       # Number of memory ordering violations
system.switch_cpus_1.iew.lsq.thread0.rescheduledLoads        34270                       # Number of loads that were rescheduled
system.switch_cpus_1.iew.lsq.thread0.squashedLoads     37587827                       # Number of loads squashed
system.switch_cpus_1.iew.lsq.thread0.squashedStores     15505628                       # Number of stores squashed
system.switch_cpus_1.iew.memOrderViolationEvents        34407                       # Number of memory order violations
system.switch_cpus_1.iew.predictedNotTakenIncorrect     11906674                       # Number of branches that were predicted not taken incorrectly
system.switch_cpus_1.iew.predictedTakenIncorrect       904385                       # Number of branches that were predicted taken incorrectly
system.switch_cpus_1.iew.wb_consumers      2211214790                       # num instructions consuming a value
system.switch_cpus_1.iew.wb_count          1717049951                       # cumulative count of insts written-back
system.switch_cpus_1.iew.wb_fanout           0.568989                       # average fanout of values written-back
system.switch_cpus_1.iew.wb_producers      1258157363                       # num instructions producing a value
system.switch_cpus_1.iew.wb_rate             2.206651                       # insts written-back per cycle
system.switch_cpus_1.iew.wb_sent           1720071171                       # cumulative count of insts sent to commit
system.switch_cpus_1.int_regfile_reads     1884644938                       # number of integer regfile reads
system.switch_cpus_1.int_regfile_writes     828054840                       # number of integer regfile writes
system.switch_cpus_1.ipc                     1.285141                       # IPC: Instructions Per Cycle
system.switch_cpus_1.ipc_total               1.285141                       # IPC: Total IPC of All Threads
system.switch_cpus_1.iq.FU_type_0::No_OpClass      5529378      0.31%      0.31% # Type of FU issued
system.switch_cpus_1.iq.FU_type_0::IntAlu    922826327     52.21%     52.52% # Type of FU issued
system.switch_cpus_1.iq.FU_type_0::IntMult       511632      0.03%     52.55% # Type of FU issued
system.switch_cpus_1.iq.FU_type_0::IntDiv      4390209      0.25%     52.80% # Type of FU issued
system.switch_cpus_1.iq.FU_type_0::FloatAdd    110945571      6.28%     59.07% # Type of FU issued
system.switch_cpus_1.iq.FU_type_0::FloatCmp            0      0.00%     59.07% # Type of FU issued
system.switch_cpus_1.iq.FU_type_0::FloatCvt           42      0.00%     59.07% # Type of FU issued
system.switch_cpus_1.iq.FU_type_0::FloatMult            0      0.00%     59.07% # Type of FU issued
system.switch_cpus_1.iq.FU_type_0::FloatMultAcc            0      0.00%     59.07% # Type of FU issued
system.switch_cpus_1.iq.FU_type_0::FloatDiv            0      0.00%     59.07% # Type of FU issued
system.switch_cpus_1.iq.FU_type_0::FloatMisc            0      0.00%     59.07% # Type of FU issued
system.switch_cpus_1.iq.FU_type_0::FloatSqrt            0      0.00%     59.07% # Type of FU issued
system.switch_cpus_1.iq.FU_type_0::SimdAdd            0      0.00%     59.07% # Type of FU issued
system.switch_cpus_1.iq.FU_type_0::SimdAddAcc            0      0.00%     59.07% # Type of FU issued
system.switch_cpus_1.iq.FU_type_0::SimdAlu       373914      0.02%     59.10% # Type of FU issued
system.switch_cpus_1.iq.FU_type_0::SimdCmp            0      0.00%     59.10% # Type of FU issued
system.switch_cpus_1.iq.FU_type_0::SimdCvt       249800      0.01%     59.11% # Type of FU issued
system.switch_cpus_1.iq.FU_type_0::SimdMisc       250635      0.01%     59.12% # Type of FU issued
system.switch_cpus_1.iq.FU_type_0::SimdMult            0      0.00%     59.12% # Type of FU issued
system.switch_cpus_1.iq.FU_type_0::SimdMultAcc            0      0.00%     59.12% # Type of FU issued
system.switch_cpus_1.iq.FU_type_0::SimdShift            0      0.00%     59.12% # Type of FU issued
system.switch_cpus_1.iq.FU_type_0::SimdShiftAcc            0      0.00%     59.12% # Type of FU issued
system.switch_cpus_1.iq.FU_type_0::SimdDiv            0      0.00%     59.12% # Type of FU issued
system.switch_cpus_1.iq.FU_type_0::SimdSqrt            0      0.00%     59.12% # Type of FU issued
system.switch_cpus_1.iq.FU_type_0::SimdFloatAdd    154317768      8.73%     67.85% # Type of FU issued
system.switch_cpus_1.iq.FU_type_0::SimdFloatAlu            0      0.00%     67.85% # Type of FU issued
system.switch_cpus_1.iq.FU_type_0::SimdFloatCmp            0      0.00%     67.85% # Type of FU issued
system.switch_cpus_1.iq.FU_type_0::SimdFloatCvt     30735302      1.74%     69.59% # Type of FU issued
system.switch_cpus_1.iq.FU_type_0::SimdFloatDiv            0      0.00%     69.59% # Type of FU issued
system.switch_cpus_1.iq.FU_type_0::SimdFloatMisc            0      0.00%     69.59% # Type of FU issued
system.switch_cpus_1.iq.FU_type_0::SimdFloatMult    145703804      8.24%     77.84% # Type of FU issued
system.switch_cpus_1.iq.FU_type_0::SimdFloatMultAcc            0      0.00%     77.84% # Type of FU issued
system.switch_cpus_1.iq.FU_type_0::SimdFloatSqrt            0      0.00%     77.84% # Type of FU issued
system.switch_cpus_1.iq.FU_type_0::SimdReduceAdd            0      0.00%     77.84% # Type of FU issued
system.switch_cpus_1.iq.FU_type_0::SimdReduceAlu            0      0.00%     77.84% # Type of FU issued
system.switch_cpus_1.iq.FU_type_0::SimdReduceCmp            0      0.00%     77.84% # Type of FU issued
system.switch_cpus_1.iq.FU_type_0::SimdFloatReduceAdd            0      0.00%     77.84% # Type of FU issued
system.switch_cpus_1.iq.FU_type_0::SimdFloatReduceCmp            0      0.00%     77.84% # Type of FU issued
system.switch_cpus_1.iq.FU_type_0::SimdAes            0      0.00%     77.84% # Type of FU issued
system.switch_cpus_1.iq.FU_type_0::SimdAesMix            0      0.00%     77.84% # Type of FU issued
system.switch_cpus_1.iq.FU_type_0::SimdSha1Hash            0      0.00%     77.84% # Type of FU issued
system.switch_cpus_1.iq.FU_type_0::SimdSha1Hash2            0      0.00%     77.84% # Type of FU issued
system.switch_cpus_1.iq.FU_type_0::SimdSha256Hash            0      0.00%     77.84% # Type of FU issued
system.switch_cpus_1.iq.FU_type_0::SimdSha256Hash2            0      0.00%     77.84% # Type of FU issued
system.switch_cpus_1.iq.FU_type_0::SimdShaSigma2            0      0.00%     77.84% # Type of FU issued
system.switch_cpus_1.iq.FU_type_0::SimdShaSigma3            0      0.00%     77.84% # Type of FU issued
system.switch_cpus_1.iq.FU_type_0::SimdPredAlu            0      0.00%     77.84% # Type of FU issued
system.switch_cpus_1.iq.FU_type_0::MemRead    119344654      6.75%     84.59% # Type of FU issued
system.switch_cpus_1.iq.FU_type_0::MemWrite     48707245      2.76%     87.34% # Type of FU issued
system.switch_cpus_1.iq.FU_type_0::FloatMemRead    177349997     10.03%     97.38% # Type of FU issued
system.switch_cpus_1.iq.FU_type_0::FloatMemWrite     46373558      2.62%    100.00% # Type of FU issued
system.switch_cpus_1.iq.FU_type_0::IprAccess            0      0.00%    100.00% # Type of FU issued
system.switch_cpus_1.iq.FU_type_0::InstPrefetch            0      0.00%    100.00% # Type of FU issued
system.switch_cpus_1.iq.FU_type_0::total   1767609836                       # Type of FU issued
system.switch_cpus_1.iq.fp_alu_accesses     777822425                       # Number of floating point alu accesses
system.switch_cpus_1.iq.fp_inst_queue_reads   1560653932                       # Number of floating instruction queue reads
system.switch_cpus_1.iq.fp_inst_queue_wakeup_accesses    744577871                       # Number of floating instruction queue wakeup accesses
system.switch_cpus_1.iq.fp_inst_queue_writes    790929187                       # Number of floating instruction queue writes
system.switch_cpus_1.iq.fu_busy_cnt                 0                       # FU busy when requested
system.switch_cpus_1.iq.fu_busy_rate                0                       # FU busy rate (busy events/executed inst)
system.switch_cpus_1.iq.fu_full::No_OpClass            0                       # attempts to use FU when none available
system.switch_cpus_1.iq.fu_full::IntAlu             0                       # attempts to use FU when none available
system.switch_cpus_1.iq.fu_full::IntMult            0                       # attempts to use FU when none available
system.switch_cpus_1.iq.fu_full::IntDiv             0                       # attempts to use FU when none available
system.switch_cpus_1.iq.fu_full::FloatAdd            0                       # attempts to use FU when none available
system.switch_cpus_1.iq.fu_full::FloatCmp            0                       # attempts to use FU when none available
system.switch_cpus_1.iq.fu_full::FloatCvt            0                       # attempts to use FU when none available
system.switch_cpus_1.iq.fu_full::FloatMult            0                       # attempts to use FU when none available
system.switch_cpus_1.iq.fu_full::FloatMultAcc            0                       # attempts to use FU when none available
system.switch_cpus_1.iq.fu_full::FloatDiv            0                       # attempts to use FU when none available
system.switch_cpus_1.iq.fu_full::FloatMisc            0                       # attempts to use FU when none available
system.switch_cpus_1.iq.fu_full::FloatSqrt            0                       # attempts to use FU when none available
system.switch_cpus_1.iq.fu_full::SimdAdd            0                       # attempts to use FU when none available
system.switch_cpus_1.iq.fu_full::SimdAddAcc            0                       # attempts to use FU when none available
system.switch_cpus_1.iq.fu_full::SimdAlu            0                       # attempts to use FU when none available
system.switch_cpus_1.iq.fu_full::SimdCmp            0                       # attempts to use FU when none available
system.switch_cpus_1.iq.fu_full::SimdCvt            0                       # attempts to use FU when none available
system.switch_cpus_1.iq.fu_full::SimdMisc            0                       # attempts to use FU when none available
system.switch_cpus_1.iq.fu_full::SimdMult            0                       # attempts to use FU when none available
system.switch_cpus_1.iq.fu_full::SimdMultAcc            0                       # attempts to use FU when none available
system.switch_cpus_1.iq.fu_full::SimdShift            0                       # attempts to use FU when none available
system.switch_cpus_1.iq.fu_full::SimdShiftAcc            0                       # attempts to use FU when none available
system.switch_cpus_1.iq.fu_full::SimdDiv            0                       # attempts to use FU when none available
system.switch_cpus_1.iq.fu_full::SimdSqrt            0                       # attempts to use FU when none available
system.switch_cpus_1.iq.fu_full::SimdFloatAdd            0                       # attempts to use FU when none available
system.switch_cpus_1.iq.fu_full::SimdFloatAlu            0                       # attempts to use FU when none available
system.switch_cpus_1.iq.fu_full::SimdFloatCmp            0                       # attempts to use FU when none available
system.switch_cpus_1.iq.fu_full::SimdFloatCvt            0                       # attempts to use FU when none available
system.switch_cpus_1.iq.fu_full::SimdFloatDiv            0                       # attempts to use FU when none available
system.switch_cpus_1.iq.fu_full::SimdFloatMisc            0                       # attempts to use FU when none available
system.switch_cpus_1.iq.fu_full::SimdFloatMult            0                       # attempts to use FU when none available
system.switch_cpus_1.iq.fu_full::SimdFloatMultAcc            0                       # attempts to use FU when none available
system.switch_cpus_1.iq.fu_full::SimdFloatSqrt            0                       # attempts to use FU when none available
system.switch_cpus_1.iq.fu_full::SimdReduceAdd            0                       # attempts to use FU when none available
system.switch_cpus_1.iq.fu_full::SimdReduceAlu            0                       # attempts to use FU when none available
system.switch_cpus_1.iq.fu_full::SimdReduceCmp            0                       # attempts to use FU when none available
system.switch_cpus_1.iq.fu_full::SimdFloatReduceAdd            0                       # attempts to use FU when none available
system.switch_cpus_1.iq.fu_full::SimdFloatReduceCmp            0                       # attempts to use FU when none available
system.switch_cpus_1.iq.fu_full::SimdAes            0                       # attempts to use FU when none available
system.switch_cpus_1.iq.fu_full::SimdAesMix            0                       # attempts to use FU when none available
system.switch_cpus_1.iq.fu_full::SimdSha1Hash            0                       # attempts to use FU when none available
system.switch_cpus_1.iq.fu_full::SimdSha1Hash2            0                       # attempts to use FU when none available
system.switch_cpus_1.iq.fu_full::SimdSha256Hash            0                       # attempts to use FU when none available
system.switch_cpus_1.iq.fu_full::SimdSha256Hash2            0                       # attempts to use FU when none available
system.switch_cpus_1.iq.fu_full::SimdShaSigma2            0                       # attempts to use FU when none available
system.switch_cpus_1.iq.fu_full::SimdShaSigma3            0                       # attempts to use FU when none available
system.switch_cpus_1.iq.fu_full::SimdPredAlu            0                       # attempts to use FU when none available
system.switch_cpus_1.iq.fu_full::MemRead            0                       # attempts to use FU when none available
system.switch_cpus_1.iq.fu_full::MemWrite            0                       # attempts to use FU when none available
system.switch_cpus_1.iq.fu_full::FloatMemRead            0                       # attempts to use FU when none available
system.switch_cpus_1.iq.fu_full::FloatMemWrite            0                       # attempts to use FU when none available
system.switch_cpus_1.iq.fu_full::IprAccess            0                       # attempts to use FU when none available
system.switch_cpus_1.iq.fu_full::InstPrefetch            0                       # attempts to use FU when none available
system.switch_cpus_1.iq.int_alu_accesses    984258033                       # Number of integer alu accesses
system.switch_cpus_1.iq.int_inst_queue_reads   2811923912                       # Number of integer instruction queue reads
system.switch_cpus_1.iq.int_inst_queue_wakeup_accesses    972472080                       # Number of integer instruction queue wakeup accesses
system.switch_cpus_1.iq.int_inst_queue_writes   1456060105                       # Number of integer instruction queue writes
system.switch_cpus_1.iq.iqInstsAdded       1917440309                       # Number of instructions added to the IQ (excludes non-spec)
system.switch_cpus_1.iq.iqInstsIssued      1767609836                       # Number of instructions issued
system.switch_cpus_1.iq.iqNonSpecInstsAdded       159200                       # Number of non-speculative instructions added to the IQ
system.switch_cpus_1.iq.iqSquashedInstsExamined    329377610                       # Number of squashed instructions iterated over during squash; mainly for profiling
system.switch_cpus_1.iq.iqSquashedInstsIssued     59600366                       # Number of squashed instructions issued
system.switch_cpus_1.iq.iqSquashedNonSpecRemoved       158904                       # Number of squashed non-spec instructions that were removed
system.switch_cpus_1.iq.iqSquashedOperandsExamined    569059237                       # Number of squashed operands that are examined and possibly removed from graph
system.switch_cpus_1.iq.issued_per_cycle::samples    777757810                       # Number of insts issued each cycle
system.switch_cpus_1.iq.issued_per_cycle::mean     2.272700                       # Number of insts issued each cycle
system.switch_cpus_1.iq.issued_per_cycle::stdev     1.821335                       # Number of insts issued each cycle
system.switch_cpus_1.iq.issued_per_cycle::underflows            0      0.00%      0.00% # Number of insts issued each cycle
system.switch_cpus_1.iq.issued_per_cycle::0    265992060     34.20%     34.20% # Number of insts issued each cycle
system.switch_cpus_1.iq.issued_per_cycle::1     45304557      5.83%     40.02% # Number of insts issued each cycle
system.switch_cpus_1.iq.issued_per_cycle::2     46682704      6.00%     46.03% # Number of insts issued each cycle
system.switch_cpus_1.iq.issued_per_cycle::3     50174085      6.45%     52.48% # Number of insts issued each cycle
system.switch_cpus_1.iq.issued_per_cycle::4    369604404     47.52%    100.00% # Number of insts issued each cycle
system.switch_cpus_1.iq.issued_per_cycle::overflows            0      0.00%    100.00% # Number of insts issued each cycle
system.switch_cpus_1.iq.issued_per_cycle::min_value            0                       # Number of insts issued each cycle
system.switch_cpus_1.iq.issued_per_cycle::max_value            4                       # Number of insts issued each cycle
system.switch_cpus_1.iq.issued_per_cycle::total    777757810                       # Number of insts issued each cycle
system.switch_cpus_1.iq.rate                 2.271627                       # Inst issue rate
system.switch_cpus_1.iq.vec_alu_accesses            0                       # Number of vector alu accesses
system.switch_cpus_1.iq.vec_inst_queue_reads            0                       # Number of vector instruction queue reads
system.switch_cpus_1.iq.vec_inst_queue_wakeup_accesses            0                       # Number of vector instruction queue wakeup accesses
system.switch_cpus_1.iq.vec_inst_queue_writes            0                       # Number of vector instruction queue writes
system.switch_cpus_1.itb.rdAccesses                 0                       # TLB accesses on read requests
system.switch_cpus_1.itb.rdMisses                   0                       # TLB misses on read requests
system.switch_cpus_1.itb.wrAccesses         134130970                       # TLB accesses on write requests
system.switch_cpus_1.itb.wrMisses               62796                       # TLB misses on write requests
system.switch_cpus_1.memDep0.conflictingLoads     32710144                       # Number of conflicting loads.
system.switch_cpus_1.memDep0.conflictingStores      4871509                       # Number of conflicting stores.
system.switch_cpus_1.memDep0.insertedLoads    280549852                       # Number of loads inserted to the mem dependence unit.
system.switch_cpus_1.memDep0.insertedStores    104781808                       # Number of stores inserted to the mem dependence unit.
system.switch_cpus_1.misc_regfile_reads     611767872                       # number of misc regfile reads
system.switch_cpus_1.misc_regfile_writes           18                       # number of misc regfile writes
system.switch_cpus_1.numCycles              778124883                       # number of cpu cycles simulated
system.switch_cpus_1.numWorkItemsCompleted            0                       # number of work items this cpu completed
system.switch_cpus_1.numWorkItemsStarted            0                       # number of work items this cpu started
system.switch_cpus_1.rename.BlockCycles     124082681                       # Number of cycles rename is blocking
system.switch_cpus_1.rename.CommittedMaps   1776116284                       # Number of HB maps that are committed
system.switch_cpus_1.rename.IQFullEvents    138538140                       # Number of times rename has blocked due to IQ full
system.switch_cpus_1.rename.IdleCycles      144949484                       # Number of cycles rename is idle
system.switch_cpus_1.rename.LQFullEvents       641053                       # Number of times rename has blocked due to LQ full
system.switch_cpus_1.rename.ROBFullEvents        97543                       # Number of times rename has blocked due to ROB full
system.switch_cpus_1.rename.RenameLookups   4945792942                       # Number of register rename lookups that rename has made
system.switch_cpus_1.rename.RenamedInsts   1998507200                       # Number of instructions processed by rename
system.switch_cpus_1.rename.RenamedOperands   2251819510                       # Number of destination operands rename has renamed
system.switch_cpus_1.rename.RunCycles       233892449                       # Number of cycles rename is running
system.switch_cpus_1.rename.SQFullEvents    103990834                       # Number of times rename has blocked due to SQ full
system.switch_cpus_1.rename.SquashCycles     10041146                       # Number of cycles rename is squashing
system.switch_cpus_1.rename.UnblockCycles    264774195                       # Number of cycles rename is unblocking
system.switch_cpus_1.rename.UndoneMaps      475703148                       # Number of HB maps that are undone due to squashing
system.switch_cpus_1.rename.fp_rename_lookups   1275413346                       # Number of floating rename lookups
system.switch_cpus_1.rename.int_rename_lookups   2224297751                       # Number of integer rename lookups
system.switch_cpus_1.rename.serializeStallCycles        17846                       # count of cycles rename stalled for serializing inst
system.switch_cpus_1.rename.serializingInsts         5696                       # count of serializing insts renamed
system.switch_cpus_1.rename.skidInsts       458385751                       # count of insts added to the skid buffer
system.switch_cpus_1.rename.tempSerializingInsts         5292                       # count of temporary serializing insts renamed
system.switch_cpus_1.rob.rob_reads         2551928091                       # The number of ROB reads
system.switch_cpus_1.rob.rob_writes        3882431274                       # The number of ROB writes
system.switch_cpus_1.timesIdled                 70989                       # Number of times that the entire CPU went into an idle state and unscheduled itself
system.tol2bus.snoop_filter.hit_multi_requests         1877                       # Number of requests hitting in the snoop filter with multiple (>1) holders of the requested data.
system.tol2bus.snoop_filter.hit_multi_snoops            0                       # Number of snoops hitting in the snoop filter with multiple (>1) holders of the requested data.
system.tol2bus.snoop_filter.hit_single_requests      9254058                       # Number of requests hitting in the snoop filter with a single holder of the requested data.
system.tol2bus.snoop_filter.hit_single_snoops          584                       # Number of snoops hitting in the snoop filter with a single holder of the requested data.
system.tol2bus.snoop_filter.tot_requests     18509021                       # Total number of requests made to the snoop filter.
system.tol2bus.snoop_filter.tot_snoops            584                       # Total number of snoops made to the snoop filter.
system.membus.trans_dist::ReadResp              32729                       # Transaction distribution
system.membus.trans_dist::WritebackDirty       633420                       # Transaction distribution
system.membus.trans_dist::CleanEvict             3668                       # Transaction distribution
system.membus.trans_dist::ReadExReq            604319                       # Transaction distribution
system.membus.trans_dist::ReadExResp           604319                       # Transaction distribution
system.membus.trans_dist::ReadSharedReq         32729                       # Transaction distribution
system.membus.pkt_count_system.l2.mem_side::system.mem_ctrls.port      1911184                       # Packet count per connected master and slave (bytes)
system.membus.pkt_count_system.l2.mem_side::total      1911184                       # Packet count per connected master and slave (bytes)
system.membus.pkt_count::total                1911184                       # Packet count per connected master and slave (bytes)
system.membus.pkt_size_system.l2.mem_side::system.mem_ctrls.port     81309952                       # Cumulative packet size per connected master and slave (bytes)
system.membus.pkt_size_system.l2.mem_side::total     81309952                       # Cumulative packet size per connected master and slave (bytes)
system.membus.pkt_size::total                81309952                       # Cumulative packet size per connected master and slave (bytes)
system.membus.snoops                                0                       # Total snoops (count)
system.membus.snoopTraffic                          0                       # Total snoop traffic (bytes)
system.membus.snoop_fanout::samples            637048                       # Request fanout histogram
system.membus.snoop_fanout::mean                    0                       # Request fanout histogram
system.membus.snoop_fanout::stdev                   0                       # Request fanout histogram
system.membus.snoop_fanout::underflows              0      0.00%      0.00% # Request fanout histogram
system.membus.snoop_fanout::0                  637048    100.00%    100.00% # Request fanout histogram
[...]
system.cpu.dcache.demand_miss_latency::.switch_cpus_1.data 489176934726                       # number of demand (read+write) miss cycles
system.cpu.dcache.demand_miss_latency::total 490075047226                       # number of demand (read+write) miss cycles
system.cpu.dcache.overall_miss_latency::.switch_cpus.data    898112500                       # number of overall miss cycles
system.cpu.dcache.overall_miss_latency::.switch_cpus_1.data 489176934726                       # number of overall miss cycles
system.cpu.dcache.overall_miss_latency::total 490075047226                       # number of overall miss cycles
system.cpu.dcache.demand_accesses::.cpu.data    368010236                       # number of demand (read+write) accesses
system.cpu.dcache.demand_accesses::.switch_cpus.data     17378378                       # number of demand (read+write) accesses
system.cpu.dcache.demand_accesses::.switch_cpus_1.data    331583491                       # number of demand (read+write) accesses
system.cpu.dcache.demand_accesses::total    716972105                       # number of demand (read+write) accesses
system.cpu.dcache.overall_accesses::.cpu.data    368010236                       # number of overall (read+write) accesses
system.cpu.dcache.overall_accesses::.switch_cpus.data     17378378                       # number of overall (read+write) accesses
system.cpu.dcache.overall_accesses::.switch_cpus_1.data    331583491                       # number of overall (read+write) accesses
system.cpu.dcache.overall_accesses::total    716972105                       # number of overall (read+write) accesses
system.cpu.dcache.demand_miss_rate::.cpu.data     0.000834                       # miss rate for demand accesses
system.cpu.dcache.demand_miss_rate::.switch_cpus.data     0.000997                       # miss rate for demand accesses
system.cpu.dcache.demand_miss_rate::.switch_cpus_1.data     0.104789                       # miss rate for demand accesses
system.cpu.dcache.demand_miss_rate::total     0.048915                       # miss rate for demand accesses
system.cpu.dcache.overall_miss_rate::.cpu.data     0.000834                       # miss rate for overall accesses
system.cpu.dcache.overall_miss_rate::.switch_cpus.data     0.000997                       # miss rate for overall accesses
system.cpu.dcache.overall_miss_rate::.switch_cpus_1.data     0.104789                       # miss rate for overall accesses
system.cpu.dcache.overall_miss_rate::total     0.048915                       # miss rate for overall accesses
system.cpu.dcache.demand_avg_miss_latency::.switch_cpus.data 51845.090342                       # average overall miss latency
system.cpu.dcache.demand_avg_miss_latency::.switch_cpus_1.data 14078.482050                       # average overall miss latency
system.cpu.dcache.demand_avg_miss_latency::total 13973.916097                       # average overall miss latency
system.cpu.dcache.overall_avg_miss_latency::.switch_cpus.data 51845.090342                       # average overall miss latency
system.cpu.dcache.overall_avg_miss_latency::.switch_cpus_1.data 14078.482050                       # average overall miss latency
system.cpu.dcache.overall_avg_miss_latency::total 13973.916097                       # average overall miss latency
system.cpu.dcache.blocked_cycles::no_mshrs       814753                       # number of cycles access was blocked
system.cpu.dcache.blocked_cycles::no_targets           90                       # number of cycles access was blocked
system.cpu.dcache.blocked::no_mshrs             63001                       # number of cycles access was blocked
system.cpu.dcache.blocked::no_targets               1                       # number of cycles access was blocked
system.cpu.dcache.avg_blocked_cycles::no_mshrs    12.932382                       # average number of cycles each access was blocked
system.cpu.dcache.avg_blocked_cycles::no_targets           90                       # average number of cycles each access was blocked
system.cpu.dcache.writebacks::.writebacks      2567279                       # number of writebacks
system.cpu.dcache.writebacks::total           2567279                       # number of writebacks
system.cpu.dcache.demand_mshr_hits::.switch_cpus_1.data     26054761                       # number of demand (read+write) MSHR hits
system.cpu.dcache.demand_mshr_hits::total     26054761                       # number of demand (read+write) MSHR hits
system.cpu.dcache.overall_mshr_hits::.switch_cpus_1.data     26054761                       # number of overall MSHR hits
system.cpu.dcache.overall_mshr_hits::total     26054761                       # number of overall MSHR hits
system.cpu.dcache.demand_mshr_misses::.switch_cpus.data        17323                       # number of demand (read+write) MSHR misses
system.cpu.dcache.demand_mshr_misses::.switch_cpus_1.data      8691665                       # number of demand (read+write) MSHR misses
system.cpu.dcache.demand_mshr_misses::total      8708988                       # number of demand (read+write) MSHR misses
system.cpu.dcache.overall_mshr_misses::.switch_cpus.data        17323                       # number of overall MSHR misses
system.cpu.dcache.overall_mshr_misses::.switch_cpus_1.data      8691665                       # number of overall MSHR misses
system.cpu.dcache.overall_mshr_misses::total      8708988                       # number of overall MSHR misses
system.cpu.dcache.demand_mshr_miss_latency::.switch_cpus.data    880789500                       # number of demand (read+write) MSHR miss cycles
system.cpu.dcache.demand_mshr_miss_latency::.switch_cpus_1.data 149811883226                       # number of demand (read+write) MSHR miss cycles
system.cpu.dcache.demand_mshr_miss_latency::total 150692672726                       # number of demand (read+write) MSHR miss cycles
system.cpu.dcache.overall_mshr_miss_latency::.switch_cpus.data    880789500                       # number of overall MSHR miss cycles
system.cpu.dcache.overall_mshr_miss_latency::.switch_cpus_1.data 149811883226                       # number of overall MSHR miss cycles
system.cpu.dcache.overall_mshr_miss_latency::total 150692672726                       # number of overall MSHR miss cycles
system.cpu.dcache.demand_mshr_miss_rate::.switch_cpus.data     0.000997                       # mshr miss rate for demand accesses
system.cpu.dcache.demand_mshr_miss_rate::.switch_cpus_1.data     0.026213                       # mshr miss rate for demand accesses
system.cpu.dcache.demand_mshr_miss_rate::total     0.012147                       # mshr miss rate for demand accesses
system.cpu.dcache.overall_mshr_miss_rate::.switch_cpus.data     0.000997                       # mshr miss rate for overall accesses
system.cpu.dcache.overall_mshr_miss_rate::.switch_cpus_1.data     0.026213                       # mshr miss rate for overall accesses
system.cpu.dcache.overall_mshr_miss_rate::total     0.012147                       # mshr miss rate for overall accesses
system.cpu.dcache.demand_avg_mshr_miss_latency::.switch_cpus.data 50845.090342                       # average overall mshr miss latency
system.cpu.dcache.demand_avg_mshr_miss_latency::.switch_cpus_1.data 17236.269832                       # average overall mshr miss latency
system.cpu.dcache.demand_avg_mshr_miss_latency::total 17303.120951                       # average overall mshr miss latency
system.cpu.dcache.overall_avg_mshr_miss_latency::.switch_cpus.data 50845.090342                       # average overall mshr miss latency
system.cpu.dcache.overall_avg_mshr_miss_latency::.switch_cpus_1.data 17236.269832                       # average overall mshr miss latency
system.cpu.dcache.overall_avg_mshr_miss_latency::total 17303.120951                       # average overall mshr miss latency
system.cpu.dcache.replacements                9014977                       # number of replacements
system.cpu.dcache.ReadReq_hits::.cpu.data    230950115                       # number of ReadReq hits
system.cpu.dcache.ReadReq_hits::.switch_cpus.data     11296058                       # number of ReadReq hits
system.cpu.dcache.ReadReq_hits::.switch_cpus_1.data    208489285                       # number of ReadReq hits
system.cpu.dcache.ReadReq_hits::total       450735458                       # number of ReadReq hits
system.cpu.dcache.ReadReq_misses::.cpu.data       133152                       # number of ReadReq misses
system.cpu.dcache.ReadReq_misses::.switch_cpus.data         5672                       # number of ReadReq misses
system.cpu.dcache.ReadReq_misses::.switch_cpus_1.data     33818027                       # number of ReadReq misses
system.cpu.dcache.ReadReq_misses::total      33956851                       # number of ReadReq misses
system.cpu.dcache.ReadReq_miss_latency::.switch_cpus.data     73744500                       # number of ReadReq miss cycles
system.cpu.dcache.ReadReq_miss_latency::.switch_cpus_1.data 434493396500                       # number of ReadReq miss cycles
system.cpu.dcache.ReadReq_miss_latency::total 434567141000                       # number of ReadReq miss cycles
system.cpu.dcache.ReadReq_accesses::.cpu.data    231083267                       # number of ReadReq accesses(hits+misses)
system.cpu.dcache.ReadReq_accesses::.switch_cpus.data     11301730                       # number of ReadReq accesses(hits+misses)
system.cpu.dcache.ReadReq_accesses::.switch_cpus_1.data    242307312                       # number of ReadReq accesses(hits+misses)
system.cpu.dcache.ReadReq_accesses::total    484692309                       # number of ReadReq accesses(hits+misses)
system.cpu.dcache.ReadReq_miss_rate::.cpu.data     0.000576                       # miss rate for ReadReq accesses
system.cpu.dcache.ReadReq_miss_rate::.switch_cpus.data     0.000502                       # miss rate for ReadReq accesses
system.cpu.dcache.ReadReq_miss_rate::.switch_cpus_1.data     0.139567                       # miss rate for ReadReq accesses
system.cpu.dcache.ReadReq_miss_rate::total     0.070059                       # miss rate for ReadReq accesses
system.cpu.dcache.ReadReq_avg_miss_latency::.switch_cpus.data 13001.498590                       # average ReadReq miss latency
system.cpu.dcache.ReadReq_avg_miss_latency::.switch_cpus_1.data 12847.981832                       # average ReadReq miss latency
system.cpu.dcache.ReadReq_avg_miss_latency::total 12797.627819                       # average ReadReq miss latency
system.cpu.dcache.ReadReq_mshr_hits::.switch_cpus_1.data     26046318                       # number of ReadReq MSHR hits
system.cpu.dcache.ReadReq_mshr_hits::total     26046318                       # number of ReadReq MSHR hits
system.cpu.dcache.ReadReq_mshr_misses::.switch_cpus.data         5672                       # number of ReadReq MSHR misses
system.cpu.dcache.ReadReq_mshr_misses::.switch_cpus_1.data      7771709                       # number of ReadReq MSHR misses
system.cpu.dcache.ReadReq_mshr_misses::total      7777381                       # number of ReadReq MSHR misses
system.cpu.dcache.ReadReq_mshr_miss_latency::.switch_cpus.data     68072500                       # number of ReadReq MSHR miss cycles
system.cpu.dcache.ReadReq_mshr_miss_latency::.switch_cpus_1.data  96146689000                       # number of ReadReq MSHR miss cycles
system.cpu.dcache.ReadReq_mshr_miss_latency::total  96214761500                       # number of ReadReq MSHR miss cycles
system.cpu.dcache.ReadReq_mshr_miss_rate::.switch_cpus.data     0.000502                       # mshr miss rate for ReadReq accesses
system.cpu.dcache.ReadReq_mshr_miss_rate::.switch_cpus_1.data     0.032074                       # mshr miss rate for ReadReq accesses
system.cpu.dcache.ReadReq_mshr_miss_rate::total     0.016046                       # mshr miss rate for ReadReq accesses
system.cpu.dcache.ReadReq_avg_mshr_miss_latency::.switch_cpus.data 12001.498590                       # average ReadReq mshr miss latency
system.cpu.dcache.ReadReq_avg_mshr_miss_latency::.switch_cpus_1.data 12371.370184                       # average ReadReq mshr miss latency
system.cpu.dcache.ReadReq_avg_mshr_miss_latency::total 12371.100439                       # average ReadReq mshr miss latency
system.cpu.dcache.WriteReq_hits::.cpu.data    136753168                       # number of WriteReq hits
system.cpu.dcache.WriteReq_hits::.switch_cpus.data      6064997                       # number of WriteReq hits
system.cpu.dcache.WriteReq_hits::.switch_cpus_1.data     88347780                       # number of WriteReq hits
system.cpu.dcache.WriteReq_hits::total      231165945                       # number of WriteReq hits
system.cpu.dcache.WriteReq_misses::.cpu.data       173801                       # number of WriteReq misses
system.cpu.dcache.WriteReq_misses::.switch_cpus.data        11651                       # number of WriteReq misses
system.cpu.dcache.WriteReq_misses::.switch_cpus_1.data       928399                       # number of WriteReq misses
system.cpu.dcache.WriteReq_misses::total      1113851                       # number of WriteReq misses
system.cpu.dcache.WriteReq_miss_latency::.switch_cpus.data    824368000                       # number of WriteReq miss cycles
system.cpu.dcache.WriteReq_miss_latency::.switch_cpus_1.data  54683538226                       # number of WriteReq miss cycles
system.cpu.dcache.WriteReq_miss_latency::total  55507906226                       # number of WriteReq miss cycles
system.cpu.dcache.WriteReq_accesses::.cpu.data    136926969                       # number of WriteReq accesses(hits+misses)
system.cpu.dcache.WriteReq_accesses::.switch_cpus.data      6076648                       # number of WriteReq accesses(hits+misses)
system.cpu.dcache.WriteReq_accesses::.switch_cpus_1.data     89276179                       # number of WriteReq accesses(hits+misses)
system.cpu.dcache.WriteReq_accesses::total    232279796                       # number of WriteReq accesses(hits+misses)
system.cpu.dcache.WriteReq_miss_rate::.cpu.data     0.001269                       # miss rate for WriteReq accesses
system.cpu.dcache.WriteReq_miss_rate::.switch_cpus.data     0.001917                       # miss rate for WriteReq accesses
system.cpu.dcache.WriteReq_miss_rate::.switch_cpus_1.data     0.010399                       # miss rate for WriteReq accesses
system.cpu.dcache.WriteReq_miss_rate::total     0.004795                       # miss rate for WriteReq accesses
system.cpu.dcache.WriteReq_avg_miss_latency::.switch_cpus.data 70755.128315                       # average WriteReq miss latency
system.cpu.dcache.WriteReq_avg_miss_latency::.switch_cpus_1.data 58900.901688                       # average WriteReq miss latency
system.cpu.dcache.WriteReq_avg_miss_latency::total 49834.229377                       # average WriteReq miss latency
system.cpu.dcache.WriteReq_mshr_hits::.switch_cpus_1.data         8443                       # number of WriteReq MSHR hits
system.cpu.dcache.WriteReq_mshr_hits::total         8443                       # number of WriteReq MSHR hits
system.cpu.dcache.WriteReq_mshr_misses::.switch_cpus.data        11651                       # number of WriteReq MSHR misses
system.cpu.dcache.WriteReq_mshr_misses::.switch_cpus_1.data       919956                       # number of WriteReq MSHR misses
system.cpu.dcache.WriteReq_mshr_misses::total       931607                       # number of WriteReq MSHR misses
system.cpu.dcache.WriteReq_mshr_miss_latency::.switch_cpus.data    812717000                       # number of WriteReq MSHR miss cycles
system.cpu.dcache.WriteReq_mshr_miss_latency::.switch_cpus_1.data  53665194226                       # number of WriteReq MSHR miss cycles
system.cpu.dcache.WriteReq_mshr_miss_latency::total  54477911226                       # number of WriteReq MSHR miss cycles
system.cpu.dcache.WriteReq_mshr_miss_rate::.switch_cpus.data     0.001917                       # mshr miss rate for WriteReq accesses
system.cpu.dcache.WriteReq_mshr_miss_rate::.switch_cpus_1.data     0.010305                       # mshr miss rate for WriteReq accesses
system.cpu.dcache.WriteReq_mshr_miss_rate::total     0.004011                       # mshr miss rate for WriteReq accesses
system.cpu.dcache.WriteReq_avg_mshr_miss_latency::.switch_cpus.data 69755.128315                       # average WriteReq mshr miss latency
system.cpu.dcache.WriteReq_avg_mshr_miss_latency::.switch_cpus_1.data 58334.522766                       # average WriteReq mshr miss latency
system.cpu.dcache.WriteReq_avg_mshr_miss_latency::total 58477.352817                       # average WriteReq mshr miss latency
system.cpu.dcache.power_state.pwrStateResidencyTicks::UNDEFINED 1645064165000                       # Cumulative time (in ticks) in various power states
system.cpu.dcache.tags.tagsinuse           511.992381                       # Cycle average of tags in use
system.cpu.dcache.tags.total_refs           690917370                       # Total number of references to valid blocks.
system.cpu.dcache.tags.sampled_refs           9015489                       # Sample count of references to valid blocks.
system.cpu.dcache.tags.avg_refs             76.636705                       # Average number of references to valid blocks.
system.cpu.dcache.tags.warmup_cycle              1500                       # Cycle when the warmup percentage was hit.
system.cpu.dcache.tags.occ_blocks::.cpu.data   365.212394                       # Average occupied blocks per requestor
system.cpu.dcache.tags.occ_blocks::.switch_cpus.data    26.088374                       # Average occupied blocks per requestor
system.cpu.dcache.tags.occ_blocks::.switch_cpus_1.data   120.691613                       # Average occupied blocks per requestor
system.cpu.dcache.tags.occ_percent::.cpu.data     0.713305                       # Average percentage of cache occupancy
system.cpu.dcache.tags.occ_percent::.switch_cpus.data     0.050954                       # Average percentage of cache occupancy
system.cpu.dcache.tags.occ_percent::.switch_cpus_1.data     0.235726                       # Average percentage of cache occupancy
system.cpu.dcache.tags.occ_percent::total     0.999985                       # Average percentage of cache occupancy
system.cpu.dcache.tags.occ_task_id_blocks::1024          512                       # Occupied blocks per task id
system.cpu.dcache.tags.age_task_id_blocks_1024::0          257                       # Occupied blocks per task id
system.cpu.dcache.tags.age_task_id_blocks_1024::1           82                       # Occupied blocks per task id
system.cpu.dcache.tags.age_task_id_blocks_1024::2           46                       # Occupied blocks per task id
system.cpu.dcache.tags.age_task_id_blocks_1024::3          127                       # Occupied blocks per task id
system.cpu.dcache.tags.occ_task_id_percent::1024            1                       # Percentage of cache occupancy per task id
system.cpu.dcache.tags.tag_accesses        1442959699                       # Number of tag accesses
system.cpu.dcache.tags.data_accesses       1442959699                       # Number of data accesses
system.cpu.dcache.tags.power_state.pwrStateResidencyTicks::UNDEFINED 1645064165000                       # Cumulative time (in ticks) in various power states
system.cpu.power_state.numTransitions               2                       # Number of power state transitions
system.cpu.power_state.pwrStateResidencyTicks::ON 1168016824500                       # Cumulative time (in ticks) in various power states
system.cpu.power_state.pwrStateResidencyTicks::OFF 477047340500                       # Cumulative time (in ticks) in various power states

---------- End Simulation Statistics   ----------
