
---------- Begin Simulation Statistics ----------
final_tick                                 1721379500                       # Number of ticks from beginning of simulation (restored from checkpoints and never reset)
host_inst_rate                                 199605                       # Simulator instruction rate (inst/s)
host_mem_usage                                 715736                       # Number of bytes of host memory used
host_op_rate                                   199669                       # Simulator op (including micro ops) rate (op/s)
host_seconds                                    17.12                       # Real time elapsed on the host
host_tick_rate                              100573915                       # Simulator tick rate (ticks/s)
sim_freq                                 1000000000000                       # Frequency of simulated ticks
sim_insts                                     3416324                       # Number of instructions simulated
sim_ops                                       3417446                       # Number of ops (including micro ops) simulated
sim_seconds                                  0.001721                       # Number of seconds simulated
sim_ticks                                  1721379500                       # Number of ticks simulated
system.cpu.branchPred.BTBCorrect                    0                       # Number of correct BTB predictions (this stat may not work properly.
system.cpu.branchPred.BTBHitPct             99.473406                       # BTB Hit Percentage
system.cpu.branchPred.BTBHits                   92372                       # Number of BTB hits
system.cpu.branchPred.BTBLookups                92861                       # Number of BTB lookups
system.cpu.branchPred.RASInCorrect                 26                       # Number of incorrect RAS predictions.
system.cpu.branchPred.condIncorrect              4423                       # Number of conditional branches incorrect
system.cpu.branchPred.condPredicted            115495                       # Number of conditional branches predicted
system.cpu.branchPred.indirectHits                 22                       # Number of indirect target hits.
system.cpu.branchPred.indirectLookups             185                       # Number of indirect predictor lookups.
system.cpu.branchPred.indirectMisses              163                       # Number of indirect misses.
system.cpu.branchPred.lookups                  173535                       # Number of BP lookups
system.cpu.branchPred.loop_predictor.loopPredictorCorrect         8841                       # Number of times the loop predictor is the provider and the prediction is correct
system.cpu.branchPred.loop_predictor.loopPredictorWrong          195                       # Number of times the loop predictor is the provider and the prediction is wrong
system.cpu.branchPred.statistical_corrector.scPredictorCorrect          193                       # Number of time the SC predictor is the provider and the prediction is correct
system.cpu.branchPred.statistical_corrector.scPredictorWrong         3161                       # Number of time the SC predictor is the provider and the prediction is wrong
system.cpu.branchPred.tage.bimodalAltMatchProviderCorrect           25                       # Number of times TAGE Alt Match is the bimodal and it is the provider and the prediction is correct
system.cpu.branchPred.tage.bimodalAltMatchProviderWrong            6                       # Number of times TAGE Alt Match is the bimodal and it is the provider and the prediction is wrong
system.cpu.branchPred.tage.tageAltMatchProvider::0         3343                       # TAGE provider for alt match
system.cpu.branchPred.tage.tageAltMatchProvider::1            0                       # TAGE provider for alt match
system.cpu.branchPred.tage.tageAltMatchProvider::2         7383                       # TAGE provider for alt match
system.cpu.branchPred.tage.tageAltMatchProvider::3            0                       # TAGE provider for alt match
system.cpu.branchPred.tage.tageAltMatchProvider::4          929                       # TAGE provider for alt match
system.cpu.branchPred.tage.tageAltMatchProvider::5            0                       # TAGE provider for alt match
system.cpu.branchPred.tage.tageAltMatchProvider::6         1809                       # TAGE provider for alt match
system.cpu.branchPred.tage.tageAltMatchProvider::7         6654                       # TAGE provider for alt match
system.cpu.branchPred.tage.tageAltMatchProvider::8        11527                       # TAGE provider for alt match
system.cpu.branchPred.tage.tageAltMatchProvider::9        12668                       # TAGE provider for alt match
system.cpu.branchPred.tage.tageAltMatchProvider::10         7547                       # TAGE provider for alt match
system.cpu.branchPred.tage.tageAltMatchProvider::11         8938                       # TAGE provider for alt match
system.cpu.branchPred.tage.tageAltMatchProvider::12         5380                       # TAGE provider for alt match
system.cpu.branchPred.tage.tageAltMatchProvider::13         4573                       # TAGE provider for alt match
system.cpu.branchPred.tage.tageAltMatchProvider::14         3695                       # TAGE provider for alt match
system.cpu.branchPred.tage.tageAltMatchProvider::15         1923                       # TAGE provider for alt match
system.cpu.branchPred.tage.tageAltMatchProvider::16         3123                       # TAGE provider for alt match
system.cpu.branchPred.tage.tageAltMatchProvider::17         1407                       # TAGE provider for alt match
system.cpu.branchPred.tage.tageAltMatchProvider::18         2850                       # TAGE provider for alt match
system.cpu.branchPred.tage.tageAltMatchProvider::19         2399                       # TAGE provider for alt match
system.cpu.branchPred.tage.tageAltMatchProvider::20          126                       # TAGE provider for alt match
system.cpu.branchPred.tage.tageAltMatchProvider::21            0                       # TAGE provider for alt match
system.cpu.branchPred.tage.tageAltMatchProvider::22          173                       # TAGE provider for alt match
system.cpu.branchPred.tage.tageAltMatchProvider::23            0                       # TAGE provider for alt match
system.cpu.branchPred.tage.tageAltMatchProvider::24          385                       # TAGE provider for alt match
system.cpu.branchPred.tage.tageAltMatchProvider::25            0                       # TAGE provider for alt match
system.cpu.branchPred.tage.tageAltMatchProvider::26          442                       # TAGE provider for alt match
system.cpu.branchPred.tage.tageAltMatchProvider::27            0                       # TAGE provider for alt match
system.cpu.branchPred.tage.tageAltMatchProvider::28          160                       # TAGE provider for alt match
system.cpu.branchPred.tage.tageAltMatchProvider::29            0                       # TAGE provider for alt match
system.cpu.branchPred.tage.tageAltMatchProvider::30            0                       # TAGE provider for alt match
system.cpu.branchPred.tage.tageAltMatchProviderCorrect          321                       # Number of times TAGE Alt Match is the provider and the prediction is correct
system.cpu.branchPred.tage.tageAltMatchProviderWouldHaveHit           98                       # Number of times TAGE Longest Match is the provider, the prediction is wrong and Alt Match prediction was correct
system.cpu.branchPred.tage.tageAltMatchProviderWrong          124                       # Number of times TAGE Alt Match is the provider and the prediction is wrong
system.cpu.branchPred.tage.tageBimodalProviderCorrect         2916                       # Number of times there are no hits on the TAGE tables and the bimodal prediction is correct
system.cpu.branchPred.tage.tageBimodalProviderWrong          212                       # Number of times there are no hits on the TAGE tables and the bimodal prediction is wrong
system.cpu.branchPred.tage.tageLongestMatchProvider::0            0                       # TAGE provider for longest match
system.cpu.branchPred.tage.tageLongestMatchProvider::1            0                       # TAGE provider for longest match
system.cpu.branchPred.tage.tageLongestMatchProvider::2         2700                       # TAGE provider for longest match
system.cpu.branchPred.tage.tageLongestMatchProvider::3            0                       # TAGE provider for longest match
system.cpu.branchPred.tage.tageLongestMatchProvider::4          637                       # TAGE provider for longest match
system.cpu.branchPred.tage.tageLongestMatchProvider::5            0                       # TAGE provider for longest match
system.cpu.branchPred.tage.tageLongestMatchProvider::6           43                       # TAGE provider for longest match
system.cpu.branchPred.tage.tageLongestMatchProvider::7         3278                       # TAGE provider for longest match
system.cpu.branchPred.tage.tageLongestMatchProvider::8          351                       # TAGE provider for longest match
system.cpu.branchPred.tage.tageLongestMatchProvider::9        11926                       # TAGE provider for longest match
system.cpu.branchPred.tage.tageLongestMatchProvider::10        12185                       # TAGE provider for longest match
system.cpu.branchPred.tage.tageLongestMatchProvider::11         6027                       # TAGE provider for longest match
system.cpu.branchPred.tage.tageLongestMatchProvider::12        12610                       # TAGE provider for longest match
system.cpu.branchPred.tage.tageLongestMatchProvider::13         8329                       # TAGE provider for longest match
system.cpu.branchPred.tage.tageLongestMatchProvider::14         7314                       # TAGE provider for longest match
system.cpu.branchPred.tage.tageLongestMatchProvider::15         3402                       # TAGE provider for longest match
system.cpu.branchPred.tage.tageLongestMatchProvider::16         4962                       # TAGE provider for longest match
system.cpu.branchPred.tage.tageLongestMatchProvider::17         2736                       # TAGE provider for longest match
system.cpu.branchPred.tage.tageLongestMatchProvider::18         2450                       # TAGE provider for longest match
system.cpu.branchPred.tage.tageLongestMatchProvider::19         3809                       # TAGE provider for longest match
system.cpu.branchPred.tage.tageLongestMatchProvider::20          912                       # TAGE provider for longest match
system.cpu.branchPred.tage.tageLongestMatchProvider::21            0                       # TAGE provider for longest match
system.cpu.branchPred.tage.tageLongestMatchProvider::22         2310                       # TAGE provider for longest match
system.cpu.branchPred.tage.tageLongestMatchProvider::23            0                       # TAGE provider for longest match
system.cpu.branchPred.tage.tageLongestMatchProvider::24          202                       # TAGE provider for longest match
system.cpu.branchPred.tage.tageLongestMatchProvider::25            0                       # TAGE provider for longest match
system.cpu.branchPred.tage.tageLongestMatchProvider::26          173                       # TAGE provider for longest match
system.cpu.branchPred.tage.tageLongestMatchProvider::27            0                       # TAGE provider for longest match
system.cpu.branchPred.tage.tageLongestMatchProvider::28          286                       # TAGE provider for longest match
system.cpu.branchPred.tage.tageLongestMatchProvider::29            0                       # TAGE provider for longest match
system.cpu.branchPred.tage.tageLongestMatchProvider::30          792                       # TAGE provider for longest match
system.cpu.branchPred.tage.tageLongestMatchProviderCorrect        86549                       # Number of times TAGE Longest Match is the provider and the prediction is correct
system.cpu.branchPred.tage.tageLongestMatchProviderWouldHaveHit           37                       # Number of times TAGE Alt Match is the provider, the prediction is wrong and Longest Match prediction was correct
system.cpu.branchPred.tage.tageLongestMatchProviderWrong          440                       # Number of times TAGE Longest Match is the provider and the prediction is wrong
system.cpu.branchPred.usedRAS                     237                       # Number of times the RAS was used to get a target.
system.cpu.branchPred.wormholepredictor.whPredictorCorrect         6381                       # Number of time the WH predictor is the provider and the prediction is correct
system.cpu.branchPred.wormholepredictor.whPredictorWrong           88                       # Number of time the WH predictor is the provider and the prediction is wrong
system.cpu.branchPredindirectMispredicted           71                       # Number of mispredicted indirect branches.
system.cpu.cc_regfile_reads                  13657366                       # number of cc regfile reads
system.cpu.cc_regfile_writes                   314330                       # number of cc regfile writes
system.cpu.commit.amos                              0                       # Number of atomic instructions committed
system.cpu.commit.branchMispredicts              4261                       # The number of times a branch was mispredicted
system.cpu.commit.branches                     154288                       # Number of branches committed
system.cpu.commit.bw_lim_events                 94983                       # number cycles where commit BW limit reached
system.cpu.commit.commitNonSpecStalls              37                       # The number of times commit has been forced to stall to communicate backwards
system.cpu.commit.commitSquashedInsts          209645                       # The number of squashed insts skipped by commit
system.cpu.commit.committedInsts              3416324                       # Number of instructions committed
system.cpu.commit.committedOps                3417446                       # Number of ops (including micro ops) committed
system.cpu.commit.committed_per_cycle::samples      3391918                       # Number of insts commited each cycle
system.cpu.commit.committed_per_cycle::mean     1.007526                       # Number of insts commited each cycle
system.cpu.commit.committed_per_cycle::stdev     1.332790                       # Number of insts commited each cycle
system.cpu.commit.committed_per_cycle::underflows            0      0.00%      0.00% # Number of insts commited each cycle
system.cpu.commit.committed_per_cycle::0       947661     27.94%     27.94% # Number of insts commited each cycle
system.cpu.commit.committed_per_cycle::1      2093678     61.73%     89.66% # Number of insts commited each cycle
system.cpu.commit.committed_per_cycle::2       205296      6.05%     95.72% # Number of insts commited each cycle
system.cpu.commit.committed_per_cycle::3        49300      1.45%     97.17% # Number of insts commited each cycle
system.cpu.commit.committed_per_cycle::4          338      0.01%     97.18% # Number of insts commited each cycle
system.cpu.commit.committed_per_cycle::5          234      0.01%     97.19% # Number of insts commited each cycle
system.cpu.commit.committed_per_cycle::6          106      0.00%     97.19% # Number of insts commited each cycle
system.cpu.commit.committed_per_cycle::7          322      0.01%     97.20% # Number of insts commited each cycle
system.cpu.commit.committed_per_cycle::8        94983      2.80%    100.00% # Number of insts commited each cycle
system.cpu.commit.committed_per_cycle::overflows            0      0.00%    100.00% # Number of insts commited each cycle
system.cpu.commit.committed_per_cycle::min_value            0                       # Number of insts commited each cycle
system.cpu.commit.committed_per_cycle::max_value            8                       # Number of insts commited each cycle
system.cpu.commit.committed_per_cycle::total      3391918                       # Number of insts commited each cycle
system.cpu.commit.fp_insts                          0                       # Number of committed floating point instructions.
system.cpu.commit.function_calls                  123                       # Number of function calls committed.
system.cpu.commit.int_insts                   3263471                       # Number of committed integer instructions.
system.cpu.commit.loads                       1038149                       # Number of loads committed
system.cpu.commit.membars                          14                       # Number of memory barriers committed
system.cpu.commit.op_class_0::No_OpClass            0      0.00%      0.00% # Class of committed instruction
system.cpu.commit.op_class_0::IntAlu          1494066     43.72%     43.72% # Class of committed instruction
system.cpu.commit.op_class_0::IntMult          100003      2.93%     46.65% # Class of committed instruction
system.cpu.commit.op_class_0::IntDiv                0      0.00%     46.65% # Class of committed instruction
system.cpu.commit.op_class_0::FloatAdd              0      0.00%     46.65% # Class of committed instruction
system.cpu.commit.op_class_0::FloatCmp              0      0.00%     46.65% # Class of committed instruction
system.cpu.commit.op_class_0::FloatCvt              0      0.00%     46.65% # Class of committed instruction
system.cpu.commit.op_class_0::FloatMult             0      0.00%     46.65% # Class of committed instruction
system.cpu.commit.op_class_0::FloatMultAcc            0      0.00%     46.65% # Class of committed instruction
system.cpu.commit.op_class_0::FloatDiv              0      0.00%     46.65% # Class of committed instruction
system.cpu.commit.op_class_0::FloatMisc             0      0.00%     46.65% # Class of committed instruction
system.cpu.commit.op_class_0::FloatSqrt             0      0.00%     46.65% # Class of committed instruction
system.cpu.commit.op_class_0::SimdAdd               0      0.00%     46.65% # Class of committed instruction
system.cpu.commit.op_class_0::SimdAddAcc            0      0.00%     46.65% # Class of committed instruction
system.cpu.commit.op_class_0::SimdAlu               0      0.00%     46.65% # Class of committed instruction
system.cpu.commit.op_class_0::SimdCmp               0      0.00%     46.65% # Class of committed instruction
system.cpu.commit.op_class_0::SimdCvt               0      0.00%     46.65% # Class of committed instruction
system.cpu.commit.op_class_0::SimdMisc              0      0.00%     46.65% # Class of committed instruction
system.cpu.commit.op_class_0::SimdMult              0      0.00%     46.65% # Class of committed instruction
system.cpu.commit.op_class_0::SimdMultAcc            0      0.00%     46.65% # Class of committed instruction
system.cpu.commit.op_class_0::SimdShift             0      0.00%     46.65% # Class of committed instruction
system.cpu.commit.op_class_0::SimdShiftAcc            0      0.00%     46.65% # Class of committed instruction
system.cpu.commit.op_class_0::SimdDiv               0      0.00%     46.65% # Class of committed instruction
system.cpu.commit.op_class_0::SimdSqrt              0      0.00%     46.65% # Class of committed instruction
system.cpu.commit.op_class_0::SimdFloatAdd            0      0.00%     46.65% # Class of committed instruction
system.cpu.commit.op_class_0::SimdFloatAlu            0      0.00%     46.65% # Class of committed instruction
system.cpu.commit.op_class_0::SimdFloatCmp            0      0.00%     46.65% # Class of committed instruction
system.cpu.commit.op_class_0::SimdFloatCvt            0      0.00%     46.65% # Class of committed instruction
system.cpu.commit.op_class_0::SimdFloatDiv            0      0.00%     46.65% # Class of committed instruction
system.cpu.commit.op_class_0::SimdFloatMisc            0      0.00%     46.65% # Class of committed instruction
system.cpu.commit.op_class_0::SimdFloatMult            0      0.00%     46.65% # Class of committed instruction
system.cpu.commit.op_class_0::SimdFloatMultAcc            0      0.00%     46.65% # Class of committed instruction
system.cpu.commit.op_class_0::SimdFloatSqrt            0      0.00%     46.65% # Class of committed instruction
system.cpu.commit.op_class_0::SimdReduceAdd            0      0.00%     46.65% # Class of committed instruction
system.cpu.commit.op_class_0::SimdReduceAlu            0      0.00%     46.65% # Class of committed instruction
system.cpu.commit.op_class_0::SimdReduceCmp            0      0.00%     46.65% # Class of committed instruction
system.cpu.commit.op_class_0::SimdFloatReduceAdd            0      0.00%     46.65% # Class of committed instruction
system.cpu.commit.op_class_0::SimdFloatReduceCmp            0      0.00%     46.65% # Class of committed instruction
system.cpu.commit.op_class_0::SimdAes               0      0.00%     46.65% # Class of committed instruction
system.cpu.commit.op_class_0::SimdAesMix            0      0.00%     46.65% # Class of committed instruction
system.cpu.commit.op_class_0::SimdSha1Hash            0      0.00%     46.65% # Class of committed instruction
system.cpu.commit.op_class_0::SimdSha1Hash2            0      0.00%     46.65% # Class of committed instruction
system.cpu.commit.op_class_0::SimdSha256Hash            0      0.00%     46.65% # Class of committed instruction
system.cpu.commit.op_class_0::SimdSha256Hash2            0      0.00%     46.65% # Class of committed instruction
system.cpu.commit.op_class_0::SimdShaSigma2            0      0.00%     46.65% # Class of committed instruction
system.cpu.commit.op_class_0::SimdShaSigma3            0      0.00%     46.65% # Class of committed instruction
system.cpu.commit.op_class_0::SimdPredAlu            0      0.00%     46.65% # Class of committed instruction
system.cpu.commit.op_class_0::MemRead         1038149     30.38%     77.02% # Class of committed instruction
system.cpu.commit.op_class_0::MemWrite         785228     22.98%    100.00% # Class of committed instruction
system.cpu.commit.op_class_0::FloatMemRead            0      0.00%    100.00% # Class of committed instruction
system.cpu.commit.op_class_0::FloatMemWrite            0      0.00%    100.00% # Class of committed instruction
system.cpu.commit.op_class_0::IprAccess             0      0.00%    100.00% # Class of committed instruction
system.cpu.commit.op_class_0::InstPrefetch            0      0.00%    100.00% # Class of committed instruction
system.cpu.commit.op_class_0::total           3417446                       # Class of committed instruction
system.cpu.commit.refs                        1823377                       # Number of memory references committed
system.cpu.commit.swp_count                         0                       # Number of s/w prefetches committed
system.cpu.commit.vec_insts                         0                       # Number of committed Vector instructions.
system.cpu.committedInsts                     3416324                       # Number of Instructions Simulated
system.cpu.committedOps                       3417446                       # Number of Ops (including micro ops) Simulated
system.cpu.cpi                               1.007738                       # CPI: Cycles Per Instruction
system.cpu.cpi_total                         1.007738                       # CPI: Total CPI of All Threads
system.cpu.decode.BlockedCycles               2791838                       # Number of cycles decode is blocked
system.cpu.decode.BranchMispred                   168                       # Number of times decode detected a branch misprediction
system.cpu.decode.BranchResolved                88775                       # Number of times decode resolved a branch
system.cpu.decode.DecodedInsts                3665602                       # Number of instructions handled by decode
system.cpu.decode.IdleCycles                   161070                       # Number of cycles decode is idle
system.cpu.decode.RunCycles                     33608                       # Number of cycles decode is running
system.cpu.decode.SquashCycles                   4506                       # Number of cycles decode is squashing
system.cpu.decode.SquashedInsts                   648                       # Number of squashed instructions handled by decode
system.cpu.decode.UnblockCycles                429467                       # Number of cycles decode is unblocking
system.cpu.dtb.accesses                             0                       # DTB accesses
system.cpu.dtb.align_faults                         0                       # Number of TLB faults due to alignment restrictions
system.cpu.dtb.domain_faults                        0                       # Number of TLB faults due to domain restrictions
system.cpu.dtb.flush_entries                        0                       # Number of entries that have been flushed from TLB
system.cpu.dtb.flush_tlb                            0                       # Number of times complete TLB was flushed
system.cpu.dtb.flush_tlb_asid                       0                       # Number of times TLB was flushed by ASID
system.cpu.dtb.flush_tlb_mva                        0                       # Number of times TLB was flushed by MVA
system.cpu.dtb.flush_tlb_mva_asid                   0                       # Number of times TLB was flushed by MVA & ASID
system.cpu.dtb.hits                                 0                       # DTB hits
system.cpu.dtb.inst_accesses                        0                       # ITB inst accesses
system.cpu.dtb.inst_hits                            0                       # ITB inst hits
system.cpu.dtb.inst_misses                          0                       # ITB inst misses
system.cpu.dtb.misses                               0                       # DTB misses
system.cpu.dtb.perms_faults                         0                       # Number of TLB faults due to permissions restrictions
system.cpu.dtb.prefetch_faults                      0                       # Number of TLB faults due to prefetch
system.cpu.dtb.read_accesses                        0                       # DTB read accesses
system.cpu.dtb.read_hits                            0                       # DTB read hits
system.cpu.dtb.read_misses                          0                       # DTB read misses
system.cpu.dtb.stage2_mmu.stage2_tlb.accesses            0                       # DTB accesses
system.cpu.dtb.stage2_mmu.stage2_tlb.align_faults            0                       # Number of TLB faults due to alignment restrictions
system.cpu.dtb.stage2_mmu.stage2_tlb.domain_faults            0                       # Number of TLB faults due to domain restrictions
system.cpu.dtb.stage2_mmu.stage2_tlb.flush_entries            0                       # Number of entries that have been flushed from TLB
system.cpu.dtb.stage2_mmu.stage2_tlb.flush_tlb            0                       # Number of times complete TLB was flushed
system.cpu.dtb.stage2_mmu.stage2_tlb.flush_tlb_asid            0                       # Number of times TLB was flushed by ASID
system.cpu.dtb.stage2_mmu.stage2_tlb.flush_tlb_mva            0                       # Number of times TLB was flushed by MVA
system.cpu.dtb.stage2_mmu.stage2_tlb.flush_tlb_mva_asid            0                       # Number of times TLB was flushed by MVA & ASID
system.cpu.dtb.stage2_mmu.stage2_tlb.hits            0                       # DTB hits
system.cpu.dtb.stage2_mmu.stage2_tlb.inst_accesses            0                       # ITB inst accesses
system.cpu.dtb.stage2_mmu.stage2_tlb.inst_hits            0                       # ITB inst hits
system.cpu.dtb.stage2_mmu.stage2_tlb.inst_misses            0                       # ITB inst misses
system.cpu.dtb.stage2_mmu.stage2_tlb.misses            0                       # DTB misses
system.cpu.dtb.stage2_mmu.stage2_tlb.perms_faults            0                       # Number of TLB faults due to permissions restrictions
system.cpu.dtb.stage2_mmu.stage2_tlb.prefetch_faults            0                       # Number of TLB faults due to prefetch
system.cpu.dtb.stage2_mmu.stage2_tlb.read_accesses            0                       # DTB read accesses
system.cpu.dtb.stage2_mmu.stage2_tlb.read_hits            0                       # DTB read hits
system.cpu.dtb.stage2_mmu.stage2_tlb.read_misses            0                       # DTB read misses
system.cpu.dtb.stage2_mmu.stage2_tlb.walker.walkRequestOrigin_Requested::Data            0                       # Table walker requests started/completed, data/inst
system.cpu.dtb.stage2_mmu.stage2_tlb.walker.walkRequestOrigin_Requested::Inst            0                       # Table walker requests started/completed, data/inst
system.cpu.dtb.stage2_mmu.stage2_tlb.walker.walkRequestOrigin_Requested::total            0                       # Table walker requests started/completed, data/inst
system.cpu.dtb.stage2_mmu.stage2_tlb.walker.walkRequestOrigin_Completed::Data            0                       # Table walker requests started/completed, data/inst
system.cpu.dtb.stage2_mmu.stage2_tlb.walker.walkRequestOrigin_Completed::Inst            0                       # Table walker requests started/completed, data/inst
system.cpu.dtb.stage2_mmu.stage2_tlb.walker.walkRequestOrigin_Completed::total            0                       # Table walker requests started/completed, data/inst
system.cpu.dtb.stage2_mmu.stage2_tlb.walker.walkRequestOrigin::total            0                       # Table walker requests started/completed, data/inst
system.cpu.dtb.stage2_mmu.stage2_tlb.walker.walks            0                       # Table walker walks requested
system.cpu.dtb.stage2_mmu.stage2_tlb.write_accesses            0                       # DTB write accesses
system.cpu.dtb.stage2_mmu.stage2_tlb.write_hits            0                       # DTB write hits
system.cpu.dtb.stage2_mmu.stage2_tlb.write_misses            0                       # DTB write misses
system.cpu.dtb.walker.walkRequestOrigin_Requested::Data            0                       # Table walker requests started/completed, data/inst
system.cpu.dtb.walker.walkRequestOrigin_Requested::Inst            0                       # Table walker requests started/completed, data/inst
system.cpu.dtb.walker.walkRequestOrigin_Requested::total            0                       # Table walker requests started/completed, data/inst
system.cpu.dtb.walker.walkRequestOrigin_Completed::Data            0                       # Table walker requests started/completed, data/inst
system.cpu.dtb.walker.walkRequestOrigin_Completed::Inst            0                       # Table walker requests started/completed, data/inst
system.cpu.dtb.walker.walkRequestOrigin_Completed::total            0                       # Table walker requests started/completed, data/inst
system.cpu.dtb.walker.walkRequestOrigin::total            0                       # Table walker requests started/completed, data/inst
system.cpu.dtb.walker.walks                         0                       # Table walker walks requested
system.cpu.dtb.write_accesses                       0                       # DTB write accesses
system.cpu.dtb.write_hits                           0                       # DTB write hits
system.cpu.dtb.write_misses                         0                       # DTB write misses
system.cpu.fetch.Branches                      173535                       # Number of branches that fetch encountered
system.cpu.fetch.CacheLines                    341374                       # Number of cache lines fetched
system.cpu.fetch.Cycles                       3064267                       # Number of cycles fetch has run and was not squashing or blocked
system.cpu.fetch.IcacheSquashes                   635                       # Number of outstanding Icache misses that were squashed
system.cpu.fetch.IcacheWaitRetryStallCycles           26                       # Number of stall cycles due to full MSHR
system.cpu.fetch.Insts                        3809175                       # Number of instructions fetch has processed
system.cpu.fetch.MiscStallCycles                    5                       # Number of cycles fetch has spent waiting on interrupts, or bad addresses, or out of MSHRs
system.cpu.fetch.PendingTrapStallCycles            39                       # Number of stall cycles due to pending traps
system.cpu.fetch.SquashCycles                    9342                       # Number of cycles fetch has spent squashing
system.cpu.fetch.branchRate                  0.050406                       # Number of branch fetches per cycle
system.cpu.fetch.icacheStallCycles             351481                       # Number of cycles fetch is stalled on an Icache miss
system.cpu.fetch.predictedBranches              92631                       # Number of branches that fetch has predicted taken
system.cpu.fetch.rate                        1.106431                       # Number of inst fetches per cycle
system.cpu.fetch.rateDist::samples            3420489                       # Number of instructions fetched each cycle (Total)
system.cpu.fetch.rateDist::mean              1.114275                       # Number of instructions fetched each cycle (Total)
system.cpu.fetch.rateDist::stdev             2.447090                       # Number of instructions fetched each cycle (Total)
system.cpu.fetch.rateDist::underflows               0      0.00%      0.00% # Number of instructions fetched each cycle (Total)
system.cpu.fetch.rateDist::0                  2684528     78.48%     78.48% # Number of instructions fetched each cycle (Total)
system.cpu.fetch.rateDist::1                    80689      2.36%     80.84% # Number of instructions fetched each cycle (Total)
system.cpu.fetch.rateDist::2                    69239      2.02%     82.87% # Number of instructions fetched each cycle (Total)
system.cpu.fetch.rateDist::3                   107796      3.15%     86.02% # Number of instructions fetched each cycle (Total)
system.cpu.fetch.rateDist::4                    59430      1.74%     87.76% # Number of instructions fetched each cycle (Total)
system.cpu.fetch.rateDist::5                    56582      1.65%     89.41% # Number of instructions fetched each cycle (Total)
system.cpu.fetch.rateDist::6                    49150      1.44%     90.85% # Number of instructions fetched each cycle (Total)
system.cpu.fetch.rateDist::7                    51319      1.50%     92.35% # Number of instructions fetched each cycle (Total)
system.cpu.fetch.rateDist::8                   261756      7.65%    100.00% # Number of instructions fetched each cycle (Total)
system.cpu.fetch.rateDist::overflows                0      0.00%    100.00% # Number of instructions fetched each cycle (Total)
system.cpu.fetch.rateDist::min_value                0                       # Number of instructions fetched each cycle (Total)
system.cpu.fetch.rateDist::max_value                8                       # Number of instructions fetched each cycle (Total)
system.cpu.fetch.rateDist::total              3420489                       # Number of instructions fetched each cycle (Total)
system.cpu.idleCycles                           22271                       # Total number of cycles that the CPU has spent unscheduled due to idling
system.cpu.iew.branchMispredicts                 4682                       # Number of branch mispredicts detected at execute
system.cpu.iew.exec_branches                   160085                       # Number of branches executed
system.cpu.iew.exec_nop                             0                       # number of nop insts executed
system.cpu.iew.exec_rate                     1.013863                       # Inst execution rate
system.cpu.iew.exec_refs                      1868930                       # number of memory reference insts executed
system.cpu.iew.exec_stores                     804278                       # Number of stores executed
system.cpu.iew.exec_swp                             0                       # number of swp insts executed
system.cpu.iew.iewBlockCycles                   31178                       # Number of cycles IEW is blocking
system.cpu.iew.iewDispLoadInsts               1111191                       # Number of dispatched load instructions
system.cpu.iew.iewDispNonSpecInsts                 30                       # Number of dispatched non-speculative instructions
system.cpu.iew.iewDispSquashedInsts               193                       # Number of squashed instructions skipped by dispatch
system.cpu.iew.iewDispStoreInsts               839786                       # Number of dispatched store instructions
system.cpu.iew.iewDispatchedInsts             3627081                       # Number of instructions dispatched to IQ
system.cpu.iew.iewExecLoadInsts               1064652                       # Number of load instructions executed
system.cpu.iew.iewExecSquashedInsts              4493                       # Number of squashed instructions skipped in execute
system.cpu.iew.iewExecutedInsts               3490488                       # Number of executed instructions
system.cpu.iew.iewIQFullEvents                   7958                       # Number of times the IQ has become full, causing a stall
system.cpu.iew.iewIdleCycles                        0                       # Number of cycles IEW is idle
system.cpu.iew.iewLSQFullEvents                     9                       # Number of times the LSQ has become full, causing a stall
system.cpu.iew.iewSquashCycles                   4506                       # Number of cycles IEW is squashing
system.cpu.iew.iewUnblockCycles                  7975                       # Number of cycles IEW is unblocking
system.cpu.iew.lsq.thread0.blockedLoads             0                       # Number of blocked loads due to partial load-store forwarding
system.cpu.iew.lsq.thread0.cacheBlocked             8                       # Number of times an access to memory failed due to the cache being blocked
system.cpu.iew.lsq.thread0.forwLoads           750527                       # Number of loads that had data forwarded from stores
system.cpu.iew.lsq.thread0.ignoredResponses           13                       # Number of memory responses ignored because the instruction is squashed
system.cpu.iew.lsq.thread0.invAddrLoads             0                       # Number of loads ignored due to an invalid address
system.cpu.iew.lsq.thread0.invAddrSwpfs             0                       # Number of software prefetches ignored due to an invalid address
system.cpu.iew.lsq.thread0.memOrderViolation          294                       # Number of memory ordering violations
system.cpu.iew.lsq.thread0.rescheduledLoads           90                       # Number of loads that were rescheduled
system.cpu.iew.lsq.thread0.squashedLoads        73042                       # Number of loads squashed
system.cpu.iew.lsq.thread0.squashedStores        54558                       # Number of stores squashed
system.cpu.iew.memOrderViolationEvents            294                       # Number of memory order violations
system.cpu.iew.predictedNotTakenIncorrect         2251                       # Number of branches that were predicted not taken incorrectly
system.cpu.iew.predictedTakenIncorrect           2431                       # Number of branches that were predicted taken incorrectly
system.cpu.iew.wb_consumers                   3076943                       # num instructions consuming a value
system.cpu.iew.wb_count                       3487532                       # cumulative count of insts written-back
system.cpu.iew.wb_fanout                     0.818846                       # average fanout of values written-back
system.cpu.iew.wb_producers                   2519541                       # num instructions producing a value
system.cpu.iew.wb_rate                       1.013005                       # insts written-back per cycle
system.cpu.iew.wb_sent                        3487881                       # cumulative count of insts sent to commit
system.cpu.int_regfile_reads                  4435017                       # number of integer regfile reads
system.cpu.int_regfile_writes                 2469362                       # number of integer regfile writes
system.cpu.ipc                               0.992321                       # IPC: Instructions Per Cycle
system.cpu.ipc_total                         0.992321                       # IPC: Total IPC of All Threads
system.cpu.iq.FU_type_0::No_OpClass                 3      0.00%      0.00% # Type of FU issued
system.cpu.iq.FU_type_0::IntAlu               1521845     43.54%     43.54% # Type of FU issued
system.cpu.iq.FU_type_0::IntMult               100022      2.86%     46.41% # Type of FU issued
system.cpu.iq.FU_type_0::IntDiv                     0      0.00%     46.41% # Type of FU issued
system.cpu.iq.FU_type_0::FloatAdd                   0      0.00%     46.41% # Type of FU issued
system.cpu.iq.FU_type_0::FloatCmp                   0      0.00%     46.41% # Type of FU issued
system.cpu.iq.FU_type_0::FloatCvt                   0      0.00%     46.41% # Type of FU issued
system.cpu.iq.FU_type_0::FloatMult                  0      0.00%     46.41% # Type of FU issued
system.cpu.iq.FU_type_0::FloatMultAcc               0      0.00%     46.41% # Type of FU issued
system.cpu.iq.FU_type_0::FloatDiv                   0      0.00%     46.41% # Type of FU issued
system.cpu.iq.FU_type_0::FloatMisc                  0      0.00%     46.41% # Type of FU issued
system.cpu.iq.FU_type_0::FloatSqrt                  0      0.00%     46.41% # Type of FU issued
system.cpu.iq.FU_type_0::SimdAdd                    0      0.00%     46.41% # Type of FU issued
system.cpu.iq.FU_type_0::SimdAddAcc                 0      0.00%     46.41% # Type of FU issued
system.cpu.iq.FU_type_0::SimdAlu                    0      0.00%     46.41% # Type of FU issued
system.cpu.iq.FU_type_0::SimdCmp                    0      0.00%     46.41% # Type of FU issued
system.cpu.iq.FU_type_0::SimdCvt                    0      0.00%     46.41% # Type of FU issued
system.cpu.iq.FU_type_0::SimdMisc                   0      0.00%     46.41% # Type of FU issued
system.cpu.iq.FU_type_0::SimdMult                   0      0.00%     46.41% # Type of FU issued
system.cpu.iq.FU_type_0::SimdMultAcc                0      0.00%     46.41% # Type of FU issued
system.cpu.iq.FU_type_0::SimdShift                  0      0.00%     46.41% # Type of FU issued
system.cpu.iq.FU_type_0::SimdShiftAcc               0      0.00%     46.41% # Type of FU issued
system.cpu.iq.FU_type_0::SimdDiv                    0      0.00%     46.41% # Type of FU issued
system.cpu.iq.FU_type_0::SimdSqrt                   0      0.00%     46.41% # Type of FU issued
system.cpu.iq.FU_type_0::SimdFloatAdd               0      0.00%     46.41% # Type of FU issued
system.cpu.iq.FU_type_0::SimdFloatAlu               0      0.00%     46.41% # Type of FU issued
system.cpu.iq.FU_type_0::SimdFloatCmp               0      0.00%     46.41% # Type of FU issued
system.cpu.iq.FU_type_0::SimdFloatCvt               0      0.00%     46.41% # Type of FU issued
system.cpu.iq.FU_type_0::SimdFloatDiv               0      0.00%     46.41% # Type of FU issued
system.cpu.iq.FU_type_0::SimdFloatMisc              0      0.00%     46.41% # Type of FU issued
system.cpu.iq.FU_type_0::SimdFloatMult              0      0.00%     46.41% # Type of FU issued
system.cpu.iq.FU_type_0::SimdFloatMultAcc            0      0.00%     46.41% # Type of FU issued
system.cpu.iq.FU_type_0::SimdFloatSqrt              0      0.00%     46.41% # Type of FU issued
system.cpu.iq.FU_type_0::SimdReduceAdd              0      0.00%     46.41% # Type of FU issued
system.cpu.iq.FU_type_0::SimdReduceAlu              0      0.00%     46.41% # Type of FU issued
system.cpu.iq.FU_type_0::SimdReduceCmp              0      0.00%     46.41% # Type of FU issued
system.cpu.iq.FU_type_0::SimdFloatReduceAdd            0      0.00%     46.41% # Type of FU issued
system.cpu.iq.FU_type_0::SimdFloatReduceCmp            0      0.00%     46.41% # Type of FU issued
system.cpu.iq.FU_type_0::SimdAes                    0      0.00%     46.41% # Type of FU issued
system.cpu.iq.FU_type_0::SimdAesMix                 0      0.00%     46.41% # Type of FU issued
system.cpu.iq.FU_type_0::SimdSha1Hash               0      0.00%     46.41% # Type of FU issued
system.cpu.iq.FU_type_0::SimdSha1Hash2              0      0.00%     46.41% # Type of FU issued
system.cpu.iq.FU_type_0::SimdSha256Hash             0      0.00%     46.41% # Type of FU issued
system.cpu.iq.FU_type_0::SimdSha256Hash2            0      0.00%     46.41% # Type of FU issued
system.cpu.iq.FU_type_0::SimdShaSigma2              0      0.00%     46.41% # Type of FU issued
system.cpu.iq.FU_type_0::SimdShaSigma3              0      0.00%     46.41% # Type of FU issued
system.cpu.iq.FU_type_0::SimdPredAlu                0      0.00%     46.41% # Type of FU issued
system.cpu.iq.FU_type_0::MemRead              1068546     30.57%     76.98% # Type of FU issued
system.cpu.iq.FU_type_0::MemWrite              804565     23.02%    100.00% # Type of FU issued
system.cpu.iq.FU_type_0::FloatMemRead               0      0.00%    100.00% # Type of FU issued
system.cpu.iq.FU_type_0::FloatMemWrite              0      0.00%    100.00% # Type of FU issued
system.cpu.iq.FU_type_0::IprAccess                  0      0.00%    100.00% # Type of FU issued
system.cpu.iq.FU_type_0::InstPrefetch               0      0.00%    100.00% # Type of FU issued
system.cpu.iq.FU_type_0::total                3494981                       # Type of FU issued
system.cpu.iq.fp_alu_accesses                       0                       # Number of floating point alu accesses
system.cpu.iq.fp_inst_queue_reads                   0                       # Number of floating instruction queue reads
system.cpu.iq.fp_inst_queue_wakeup_accesses            0                       # Number of floating instruction queue wakeup accesses
system.cpu.iq.fp_inst_queue_writes                  0                       # Number of floating instruction queue writes
system.cpu.iq.fu_busy_cnt                           0                       # FU busy when requested
system.cpu.iq.fu_busy_rate                          0                       # FU busy rate (busy events/executed inst)
system.cpu.iq.fu_full::No_OpClass                   0                       # attempts to use FU when none available
system.cpu.iq.fu_full::IntAlu                       0                       # attempts to use FU when none available
system.cpu.iq.fu_full::IntMult                      0                       # attempts to use FU when none available
system.cpu.iq.fu_full::IntDiv                       0                       # attempts to use FU when none available
system.cpu.iq.fu_full::FloatAdd                     0                       # attempts to use FU when none available
system.cpu.iq.fu_full::FloatCmp                     0                       # attempts to use FU when none available
system.cpu.iq.fu_full::FloatCvt                     0                       # attempts to use FU when none available
system.cpu.iq.fu_full::FloatMult                    0                       # attempts to use FU when none available
system.cpu.iq.fu_full::FloatMultAcc                 0                       # attempts to use FU when none available
system.cpu.iq.fu_full::FloatDiv                     0                       # attempts to use FU when none available
system.cpu.iq.fu_full::FloatMisc                    0                       # attempts to use FU when none available
system.cpu.iq.fu_full::FloatSqrt                    0                       # attempts to use FU when none available
system.cpu.iq.fu_full::SimdAdd                      0                       # attempts to use FU when none available
system.cpu.iq.fu_full::SimdAddAcc                   0                       # attempts to use FU when none available
system.cpu.iq.fu_full::SimdAlu                      0                       # attempts to use FU when none available
system.cpu.iq.fu_full::SimdCmp                      0                       # attempts to use FU when none available
system.cpu.iq.fu_full::SimdCvt                      0                       # attempts to use FU when none available
system.cpu.iq.fu_full::SimdMisc                     0                       # attempts to use FU when none available
system.cpu.iq.fu_full::SimdMult                     0                       # attempts to use FU when none available
system.cpu.iq.fu_full::SimdMultAcc                  0                       # attempts to use FU when none available
system.cpu.iq.fu_full::SimdShift                    0                       # attempts to use FU when none available
system.cpu.iq.fu_full::SimdShiftAcc                 0                       # attempts to use FU when none available
system.cpu.iq.fu_full::SimdDiv                      0                       # attempts to use FU when none available
system.cpu.iq.fu_full::SimdSqrt                     0                       # attempts to use FU when none available
system.cpu.iq.fu_full::SimdFloatAdd                 0                       # attempts to use FU when none available
system.cpu.iq.fu_full::SimdFloatAlu                 0                       # attempts to use FU when none available
system.cpu.iq.fu_full::SimdFloatCmp                 0                       # attempts to use FU when none available
system.cpu.iq.fu_full::SimdFloatCvt                 0                       # attempts to use FU when none available
system.cpu.iq.fu_full::SimdFloatDiv                 0                       # attempts to use FU when none available
system.cpu.iq.fu_full::SimdFloatMisc                0                       # attempts to use FU when none available
system.cpu.iq.fu_full::SimdFloatMult                0                       # attempts to use FU when none available
system.cpu.iq.fu_full::SimdFloatMultAcc             0                       # attempts to use FU when none available
system.cpu.iq.fu_full::SimdFloatSqrt                0                       # attempts to use FU when none available
system.cpu.iq.fu_full::SimdReduceAdd                0                       # attempts to use FU when none available
system.cpu.iq.fu_full::SimdReduceAlu                0                       # attempts to use FU when none available
system.cpu.iq.fu_full::SimdReduceCmp                0                       # attempts to use FU when none available
system.cpu.iq.fu_full::SimdFloatReduceAdd            0                       # attempts to use FU when none available
system.cpu.iq.fu_full::SimdFloatReduceCmp            0                       # attempts to use FU when none available
system.cpu.iq.fu_full::SimdAes                      0                       # attempts to use FU when none available
system.cpu.iq.fu_full::SimdAesMix                   0                       # attempts to use FU when none available
system.cpu.iq.fu_full::SimdSha1Hash                 0                       # attempts to use FU when none available
system.cpu.iq.fu_full::SimdSha1Hash2                0                       # attempts to use FU when none available
system.cpu.iq.fu_full::SimdSha256Hash               0                       # attempts to use FU when none available
system.cpu.iq.fu_full::SimdSha256Hash2              0                       # attempts to use FU when none available
system.cpu.iq.fu_full::SimdShaSigma2                0                       # attempts to use FU when none available
system.cpu.iq.fu_full::SimdShaSigma3                0                       # attempts to use FU when none available
system.cpu.iq.fu_full::SimdPredAlu                  0                       # attempts to use FU when none available
system.cpu.iq.fu_full::MemRead                      0                       # attempts to use FU when none available
system.cpu.iq.fu_full::MemWrite                     0                       # attempts to use FU when none available
system.cpu.iq.fu_full::FloatMemRead                 0                       # attempts to use FU when none available
system.cpu.iq.fu_full::FloatMemWrite                0                       # attempts to use FU when none available
system.cpu.iq.fu_full::IprAccess                    0                       # attempts to use FU when none available
system.cpu.iq.fu_full::InstPrefetch                 0                       # attempts to use FU when none available
system.cpu.iq.int_alu_accesses                3494978                       # Number of integer alu accesses
system.cpu.iq.int_inst_queue_reads           10411537                       # Number of integer instruction queue reads
system.cpu.iq.int_inst_queue_wakeup_accesses      3487532                       # Number of integer instruction queue wakeup accesses
system.cpu.iq.int_inst_queue_writes           3836993                       # Number of integer instruction queue writes
system.cpu.iq.iqInstsAdded                    3627037                       # Number of instructions added to the IQ (excludes non-spec)
system.cpu.iq.iqInstsIssued                   3494981                       # Number of instructions issued
system.cpu.iq.iqNonSpecInstsAdded                  44                       # Number of non-speculative instructions added to the IQ
system.cpu.iq.iqSquashedInstsExamined          209634                       # Number of squashed instructions iterated over during squash; mainly for profiling
system.cpu.iq.iqSquashedInstsIssued              1086                       # Number of squashed instructions issued
system.cpu.iq.iqSquashedNonSpecRemoved              7                       # Number of squashed non-spec instructions that were removed
system.cpu.iq.iqSquashedOperandsExamined       682192                       # Number of squashed operands that are examined and possibly removed from graph
system.cpu.iq.issued_per_cycle::samples       3420489                       # Number of insts issued each cycle
system.cpu.iq.issued_per_cycle::mean         1.021778                       # Number of insts issued each cycle
system.cpu.iq.issued_per_cycle::stdev        0.727535                       # Number of insts issued each cycle
system.cpu.iq.issued_per_cycle::underflows            0      0.00%      0.00% # Number of insts issued each cycle
system.cpu.iq.issued_per_cycle::0              740058     21.64%     21.64% # Number of insts issued each cycle
system.cpu.iq.issued_per_cycle::1             1990124     58.18%     79.82% # Number of insts issued each cycle
system.cpu.iq.issued_per_cycle::2              570572     16.68%     96.50% # Number of insts issued each cycle
system.cpu.iq.issued_per_cycle::3              115227      3.37%     99.87% # Number of insts issued each cycle
system.cpu.iq.issued_per_cycle::4                4508      0.13%    100.00% # Number of insts issued each cycle
system.cpu.iq.issued_per_cycle::overflows            0      0.00%    100.00% # Number of insts issued each cycle
system.cpu.iq.issued_per_cycle::min_value            0                       # Number of insts issued each cycle
system.cpu.iq.issued_per_cycle::max_value            4                       # Number of insts issued each cycle
system.cpu.iq.issued_per_cycle::total         3420489                       # Number of insts issued each cycle
system.cpu.iq.rate                           1.015168                       # Inst issue rate
system.cpu.iq.vec_alu_accesses                      0                       # Number of vector alu accesses
system.cpu.iq.vec_inst_queue_reads                  0                       # Number of vector instruction queue reads
system.cpu.iq.vec_inst_queue_wakeup_accesses            0                       # Number of vector instruction queue wakeup accesses
system.cpu.iq.vec_inst_queue_writes                 0                       # Number of vector instruction queue writes
system.cpu.itb.accesses                             0                       # DTB accesses
system.cpu.itb.align_faults                         0                       # Number of TLB faults due to alignment restrictions
system.cpu.itb.domain_faults                        0                       # Number of TLB faults due to domain restrictions
system.cpu.itb.flush_entries                        0                       # Number of entries that have been flushed from TLB
system.cpu.itb.flush_tlb                            0                       # Number of times complete TLB was flushed
system.cpu.itb.flush_tlb_asid                       0                       # Number of times TLB was flushed by ASID
system.cpu.itb.flush_tlb_mva                        0                       # Number of times TLB was flushed by MVA
system.cpu.itb.flush_tlb_mva_asid                   0                       # Number of times TLB was flushed by MVA & ASID
system.cpu.itb.hits                                 0                       # DTB hits
system.cpu.itb.inst_accesses                        0                       # ITB inst accesses
system.cpu.itb.inst_hits                            0                       # ITB inst hits
system.cpu.itb.inst_misses                          0                       # ITB inst misses
system.cpu.itb.misses                               0                       # DTB misses
system.cpu.itb.perms_faults                         0                       # Number of TLB faults due to permissions restrictions
system.cpu.itb.prefetch_faults                      0                       # Number of TLB faults due to prefetch
system.cpu.itb.read_accesses                        0                       # DTB read accesses
system.cpu.itb.read_hits                            0                       # DTB read hits
system.cpu.itb.read_misses                          0                       # DTB read misses
system.cpu.itb.stage2_mmu.stage2_tlb.accesses            0                       # DTB accesses
system.cpu.itb.stage2_mmu.stage2_tlb.align_faults            0                       # Number of TLB faults due to alignment restrictions
system.cpu.itb.stage2_mmu.stage2_tlb.domain_faults            0                       # Number of TLB faults due to domain restrictions
system.cpu.itb.stage2_mmu.stage2_tlb.flush_entries            0                       # Number of entries that have been flushed from TLB
system.cpu.itb.stage2_mmu.stage2_tlb.flush_tlb            0                       # Number of times complete TLB was flushed
system.cpu.itb.stage2_mmu.stage2_tlb.flush_tlb_asid            0                       # Number of times TLB was flushed by ASID
system.cpu.itb.stage2_mmu.stage2_tlb.flush_tlb_mva            0                       # Number of times TLB was flushed by MVA
system.cpu.itb.stage2_mmu.stage2_tlb.flush_tlb_mva_asid            0                       # Number of times TLB was flushed by MVA & ASID
system.cpu.itb.stage2_mmu.stage2_tlb.hits            0                       # DTB hits
system.cpu.itb.stage2_mmu.stage2_tlb.inst_accesses            0                       # ITB inst accesses
system.cpu.itb.stage2_mmu.stage2_tlb.inst_hits            0                       # ITB inst hits
system.cpu.itb.stage2_mmu.stage2_tlb.inst_misses            0                       # ITB inst misses
system.cpu.itb.stage2_mmu.stage2_tlb.misses            0                       # DTB misses
system.cpu.itb.stage2_mmu.stage2_tlb.perms_faults            0                       # Number of TLB faults due to permissions restrictions
system.cpu.itb.stage2_mmu.stage2_tlb.prefetch_faults            0                       # Number of TLB faults due to prefetch
system.cpu.itb.stage2_mmu.stage2_tlb.read_accesses            0                       # DTB read accesses
system.cpu.itb.stage2_mmu.stage2_tlb.read_hits            0                       # DTB read hits
system.cpu.itb.stage2_mmu.stage2_tlb.read_misses            0                       # DTB read misses
system.cpu.itb.stage2_mmu.stage2_tlb.walker.walkRequestOrigin_Requested::Data            0                       # Table walker requests started/completed, data/inst
system.cpu.itb.stage2_mmu.stage2_tlb.walker.walkRequestOrigin_Requested::Inst            0                       # Table walker requests started/completed, data/inst
system.cpu.itb.stage2_mmu.stage2_tlb.walker.walkRequestOrigin_Requested::total            0                       # Table walker requests started/completed, data/inst
system.cpu.itb.stage2_mmu.stage2_tlb.walker.walkRequestOrigin_Completed::Data            0                       # Table walker requests started/completed, data/inst
system.cpu.itb.stage2_mmu.stage2_tlb.walker.walkRequestOrigin_Completed::Inst            0                       # Table walker requests started/completed, data/inst
system.cpu.itb.stage2_mmu.stage2_tlb.walker.walkRequestOrigin_Completed::total            0                       # Table walker requests started/completed, data/inst
system.cpu.itb.stage2_mmu.stage2_tlb.walker.walkRequestOrigin::total            0                       # Table walker requests started/completed, data/inst
system.cpu.itb.stage2_mmu.stage2_tlb.walker.walks            0                       # Table walker walks requested
system.cpu.itb.stage2_mmu.stage2_tlb.write_accesses            0                       # DTB write accesses
system.cpu.itb.stage2_mmu.stage2_tlb.write_hits            0                       # DTB write hits
system.cpu.itb.stage2_mmu.stage2_tlb.write_misses            0                       # DTB write misses
system.cpu.itb.walker.walkRequestOrigin_Requested::Data            0                       # Table walker requests started/completed, data/inst
system.cpu.itb.walker.walkRequestOrigin_Requested::Inst            0                       # Table walker requests started/completed, data/inst
system.cpu.itb.walker.walkRequestOrigin_Requested::total            0                       # Table walker requests started/completed, data/inst
system.cpu.itb.walker.walkRequestOrigin_Completed::Data            0                       # Table walker requests started/completed, data/inst
system.cpu.itb.walker.walkRequestOrigin_Completed::Inst            0                       # Table walker requests started/completed, data/inst
system.cpu.itb.walker.walkRequestOrigin_Completed::total            0                       # Table walker requests started/completed, data/inst
system.cpu.itb.walker.walkRequestOrigin::total            0                       # Table walker requests started/completed, data/inst
system.cpu.itb.walker.walks                         0                       # Table walker walks requested
system.cpu.itb.write_accesses                       0                       # DTB write accesses
system.cpu.itb.write_hits                           0                       # DTB write hits
system.cpu.itb.write_misses                         0                       # DTB write misses
system.cpu.memDep0.conflictingLoads            997664                       # Number of conflicting loads.
system.cpu.memDep0.conflictingStores           535938                       # Number of conflicting stores.
system.cpu.memDep0.insertedLoads              1111191                       # Number of loads inserted to the mem dependence unit.
system.cpu.memDep0.insertedStores              839786                       # Number of stores inserted to the mem dependence unit.
system.cpu.misc_regfile_reads                 4076452                       # number of misc regfile reads
system.cpu.misc_regfile_writes                     57                       # number of misc regfile writes
system.cpu.numCycles                          3442760                       # number of cpu cycles simulated
system.cpu.numWorkItemsCompleted                    0                       # number of work items this cpu completed
system.cpu.numWorkItemsStarted                      0                       # number of work items this cpu started
system.cpu.rename.BlockCycles                 1200098                       # Number of cycles rename is blocking
system.cpu.rename.CommittedMaps               2734888                       # Number of HB maps that are committed
system.cpu.rename.IQFullEvents                1590851                       # Number of times rename has blocked due to IQ full
system.cpu.rename.IdleCycles                   251533                       # Number of cycles rename is idle
system.cpu.rename.LQFullEvents                      1                       # Number of times rename has blocked due to LQ full
system.cpu.rename.RenameLookups              17573259                       # Number of register rename lookups that rename has made
system.cpu.rename.RenamedInsts                3643300                       # Number of instructions processed by rename
system.cpu.rename.RenamedOperands             2907766                       # Number of destination operands rename has renamed
system.cpu.rename.RunCycles                    368686                       # Number of cycles rename is running
system.cpu.rename.SQFullEvents                   1752                       # Number of times rename has blocked due to SQ full
system.cpu.rename.SquashCycles                   4506                       # Number of cycles rename is squashing
system.cpu.rename.UnblockCycles               1594356                       # Number of cycles rename is unblocking
system.cpu.rename.UndoneMaps                   172878                       # Number of HB maps that are undone due to squashing
system.cpu.rename.int_rename_lookups          4684593                       # Number of integer rename lookups
system.cpu.rename.serializeStallCycles           1310                       # count of cycles rename stalled for serializing inst
system.cpu.rename.serializingInsts                 33                       # count of serializing insts renamed
system.cpu.rename.skidInsts                   2575972                       # count of insts added to the skid buffer
system.cpu.rename.tempSerializingInsts             32                       # count of temporary serializing insts renamed
system.cpu.rename.vec_rename_lookups               16                       # Number of vector rename lookups
system.cpu.rob.rob_reads                      6923896                       # The number of ROB reads
system.cpu.rob.rob_writes                     7282762                       # The number of ROB writes
system.cpu.timesIdled                             207                       # Number of times that the entire CPU went into an idle state and unscheduled itself
system.cpu.vec_regfile_reads                       16                       # number of vector regfile reads
system.cpu.workload.numSyscalls                     9                       # Number of system calls
system.membus.snoop_filter.hit_multi_requests            0                       # Number of requests hitting in the snoop filter with multiple (>1) holders of the requested data.
system.membus.snoop_filter.hit_multi_snoops            0                       # Number of snoops hitting in the snoop filter with multiple (>1) holders of the requested data.
system.membus.snoop_filter.hit_single_requests            0                       # Number of requests hitting in the snoop filter with a single holder of the requested data.
system.membus.snoop_filter.hit_single_snoops            0                       # Number of snoops hitting in the snoop filter with a single holder of the requested data.
system.membus.snoop_filter.tot_requests           463                       # Total number of requests made to the snoop filter.
system.membus.snoop_filter.tot_snoops               0                       # Total number of snoops made to the snoop filter.
system.tol2bus.snoop_filter.hit_multi_requests           10                       # Number of requests hitting in the snoop filter with multiple (>1) holders of the requested data.
system.tol2bus.snoop_filter.hit_multi_snoops            0                       # Number of snoops hitting in the snoop filter with multiple (>1) holders of the requested data.
system.tol2bus.snoop_filter.hit_single_requests          165                       # Number of requests hitting in the snoop filter with a single holder of the requested data.
system.tol2bus.snoop_filter.hit_single_snoops            0                       # Number of snoops hitting in the snoop filter with a single holder of the requested data.
system.tol2bus.snoop_filter.tot_requests          665                       # Total number of requests made to the snoop filter.
system.tol2bus.snoop_filter.tot_snoops              0                       # Total number of snoops made to the snoop filter.
system.membus.trans_dist::ReadResp                406                       # Transaction distribution
system.membus.trans_dist::ReadExReq                56                       # Transaction distribution
system.membus.trans_dist::ReadExResp               56                       # Transaction distribution
system.membus.trans_dist::ReadSharedReq           407                       # Transaction distribution
system.membus.pkt_count_system.l2.mem_side::system.mem_ctrls.port          925                       # Packet count per connected master and slave (bytes)
system.membus.pkt_count::total                    925                       # Packet count per connected master and slave (bytes)
system.membus.pkt_size_system.l2.mem_side::system.mem_ctrls.port        29568                       # Cumulative packet size per connected master and slave (bytes)
system.membus.pkt_size::total                   29568                       # Cumulative packet size per connected master and slave (bytes)
system.membus.snoops                                0                       # Total snoops (count)
system.membus.snoopTraffic                          0                       # Total snoop traffic (bytes)
system.membus.snoop_fanout::samples               463                       # Request fanout histogram
system.membus.snoop_fanout::mean                    0                       # Request fanout histogram
system.membus.snoop_fanout::stdev                   0                       # Request fanout histogram
system.membus.snoop_fanout::underflows              0      0.00%      0.00% # Request fanout histogram
system.membus.snoop_fanout::0                     463    100.00%    100.00% # Request fanout histogram
system.membus.snoop_fanout::1                       0      0.00%    100.00% # Request fanout histogram
system.membus.snoop_fanout::overflows               0      0.00%    100.00% # Request fanout histogram
system.membus.snoop_fanout::min_value               0                       # Request fanout histogram
system.membus.snoop_fanout::max_value               0                       # Request fanout histogram
system.membus.snoop_fanout::total                 463                       # Request fanout histogram
system.membus.reqLayer0.occupancy              575500                       # Layer occupancy (ticks)
system.membus.reqLayer0.utilization               0.0                       # Layer utilization (%)
system.membus.respLayer1.occupancy            2443000                       # Layer occupancy (ticks)
system.membus.respLayer1.utilization              0.1                       # Layer utilization (%)
system.membus.power_state.pwrStateResidencyTicks::UNDEFINED   1721379500                       # Cumulative time (in ticks) in various power states
system.tol2bus.trans_dist::ReadResp               476                       # Transaction distribution
system.tol2bus.trans_dist::WritebackClean          131                       # Transaction distribution
system.tol2bus.trans_dist::ReadExReq               56                       # Transaction distribution
system.tol2bus.trans_dist::ReadExResp              56                       # Transaction distribution
system.tol2bus.trans_dist::ReadCleanReq           356                       # Transaction distribution
system.tol2bus.trans_dist::ReadSharedReq          122                       # Transaction distribution
system.tol2bus.pkt_count_system.cpu.icache.mem_side::system.l2.cpu_side          841                       # Packet count per connected master and slave (bytes)
system.tol2bus.pkt_count_system.cpu.dcache.mem_side::system.l2.cpu_side          356                       # Packet count per connected master and slave (bytes)
system.tol2bus.pkt_count::total                  1197                       # Packet count per connected master and slave (bytes)
system.tol2bus.pkt_size_system.cpu.icache.mem_side::system.l2.cpu_side        31040                       # Cumulative packet size per connected master and slave (bytes)
system.tol2bus.pkt_size_system.cpu.dcache.mem_side::system.l2.cpu_side        11392                       # Cumulative packet size per connected master and slave (bytes)
system.tol2bus.pkt_size::total                  42432                       # Cumulative packet size per connected master and slave (bytes)
system.tol2bus.snoops                               0                       # Total snoops (count)
system.tol2bus.snoopTraffic                         0                       # Total snoop traffic (bytes)
system.tol2bus.snoop_fanout::samples              534                       # Request fanout histogram
system.tol2bus.snoop_fanout::mean            0.082397                       # Request fanout histogram
system.tol2bus.snoop_fanout::stdev           0.275226                       # Request fanout histogram
system.tol2bus.snoop_fanout::underflows             0      0.00%      0.00% # Request fanout histogram
system.tol2bus.snoop_fanout::0                    490     91.76%     91.76% # Request fanout histogram
system.tol2bus.snoop_fanout::1                     44      8.24%    100.00% # Request fanout histogram
system.tol2bus.snoop_fanout::2                      0      0.00%    100.00% # Request fanout histogram
system.tol2bus.snoop_fanout::overflows              0      0.00%    100.00% # Request fanout histogram
system.tol2bus.snoop_fanout::min_value              0                       # Request fanout histogram
system.tol2bus.snoop_fanout::max_value              1                       # Request fanout histogram
system.tol2bus.snoop_fanout::total                534                       # Request fanout histogram
system.tol2bus.reqLayer0.occupancy             463500                       # Layer occupancy (ticks)
system.tol2bus.reqLayer0.utilization              0.0                       # Layer utilization (%)
system.tol2bus.respLayer1.occupancy            270992                       # Layer occupancy (ticks)
system.tol2bus.respLayer1.utilization             0.0                       # Layer utilization (%)
system.tol2bus.respLayer0.occupancy            531000                       # Layer occupancy (ticks)
system.tol2bus.respLayer0.utilization             0.0                       # Layer utilization (%)
system.tol2bus.power_state.pwrStateResidencyTicks::UNDEFINED   1721379500                       # Cumulative time (in ticks) in various power states
system.voltage_domain.voltage                       1                       # Voltage in Volts
system.clk_domain.clock                          1000                       # Clock period in ticks
system.l2.demand_hits::.cpu.inst                   45                       # number of demand (read+write) hits
system.l2.demand_hits::.cpu.data                   17                       # number of demand (read+write) hits
system.l2.demand_hits::total                       62                       # number of demand (read+write) hits
system.l2.overall_hits::.cpu.inst                  45                       # number of overall hits
system.l2.overall_hits::.cpu.data                  17                       # number of overall hits
system.l2.overall_hits::total                      62                       # number of overall hits
system.l2.demand_misses::.cpu.inst                311                       # number of demand (read+write) misses
system.l2.demand_misses::.cpu.data                161                       # number of demand (read+write) misses
system.l2.demand_misses::total                    472                       # number of demand (read+write) misses
system.l2.overall_misses::.cpu.inst               311                       # number of overall misses
system.l2.overall_misses::.cpu.data               161                       # number of overall misses
system.l2.overall_misses::total                   472                       # number of overall misses
system.l2.demand_miss_latency::.cpu.inst     23873500                       # number of demand (read+write) miss cycles
system.l2.demand_miss_latency::.cpu.data     13295500                       # number of demand (read+write) miss cycles
system.l2.demand_miss_latency::total         37169000                       # number of demand (read+write) miss cycles
system.l2.overall_miss_latency::.cpu.inst     23873500                       # number of overall miss cycles
system.l2.overall_miss_latency::.cpu.data     13295500                       # number of overall miss cycles
system.l2.overall_miss_latency::total        37169000                       # number of overall miss cycles
system.l2.demand_accesses::.cpu.inst              356                       # number of demand (read+write) accesses
system.l2.demand_accesses::.cpu.data              178                       # number of demand (read+write) accesses
system.l2.demand_accesses::total                  534                       # number of demand (read+write) accesses
system.l2.overall_accesses::.cpu.inst             356                       # number of overall (read+write) accesses
system.l2.overall_accesses::.cpu.data             178                       # number of overall (read+write) accesses
system.l2.overall_accesses::total                 534                       # number of overall (read+write) accesses
system.l2.demand_miss_rate::.cpu.inst        0.873596                       # miss rate for demand accesses
system.l2.demand_miss_rate::.cpu.data        0.904494                       # miss rate for demand accesses
system.l2.demand_miss_rate::total            0.883895                       # miss rate for demand accesses
system.l2.overall_miss_rate::.cpu.inst       0.873596                       # miss rate for overall accesses
system.l2.overall_miss_rate::.cpu.data       0.904494                       # miss rate for overall accesses
system.l2.overall_miss_rate::total           0.883895                       # miss rate for overall accesses
system.l2.demand_avg_miss_latency::.cpu.inst 76763.665595                       # average overall miss latency
system.l2.demand_avg_miss_latency::.cpu.data 82580.745342                       # average overall miss latency
system.l2.demand_avg_miss_latency::total 78747.881356                       # average overall miss latency
system.l2.overall_avg_miss_latency::.cpu.inst 76763.665595                       # average overall miss latency
system.l2.overall_avg_miss_latency::.cpu.data 82580.745342                       # average overall miss latency
[...]
system.cpu.icache.ReadReq_accesses::total       341374                       # number of ReadReq accesses(hits+misses)
system.cpu.icache.ReadReq_miss_rate::.cpu.inst     0.001412                       # miss rate for ReadReq accesses
system.cpu.icache.ReadReq_miss_rate::total     0.001412                       # miss rate for ReadReq accesses
system.cpu.icache.ReadReq_avg_miss_latency::.cpu.inst 67623.441909                       # average ReadReq miss latency
system.cpu.icache.ReadReq_avg_miss_latency::total 67623.441909                       # average ReadReq miss latency
system.cpu.icache.ReadReq_mshr_hits::.cpu.inst          126                       # number of ReadReq MSHR hits
system.cpu.icache.ReadReq_mshr_hits::total          126                       # number of ReadReq MSHR hits
system.cpu.icache.ReadReq_mshr_misses::.cpu.inst          356                       # number of ReadReq MSHR misses
system.cpu.icache.ReadReq_mshr_misses::total          356                       # number of ReadReq MSHR misses
system.cpu.icache.ReadReq_mshr_miss_latency::.cpu.inst     24908499                       # number of ReadReq MSHR miss cycles
system.cpu.icache.ReadReq_mshr_miss_latency::total     24908499                       # number of ReadReq MSHR miss cycles
system.cpu.icache.ReadReq_mshr_miss_rate::.cpu.inst     0.001043                       # mshr miss rate for ReadReq accesses
system.cpu.icache.ReadReq_mshr_miss_rate::total     0.001043                       # mshr miss rate for ReadReq accesses
system.cpu.icache.ReadReq_avg_mshr_miss_latency::.cpu.inst 69967.693820                       # average ReadReq mshr miss latency
system.cpu.icache.ReadReq_avg_mshr_miss_latency::total 69967.693820                       # average ReadReq mshr miss latency
system.cpu.icache.power_state.pwrStateResidencyTicks::UNDEFINED   1721379500                       # Cumulative time (in ticks) in various power states
system.cpu.icache.tags.tagsinuse           207.147812                       # Cycle average of tags in use
system.cpu.icache.tags.total_refs              341246                       # Total number of references to valid blocks.
system.cpu.icache.tags.sampled_refs               354                       # Sample count of references to valid blocks.
system.cpu.icache.tags.avg_refs            963.971751                       # Average number of references to valid blocks.
system.cpu.icache.tags.warmup_cycle             87500                       # Cycle when the warmup percentage was hit.
system.cpu.icache.tags.occ_blocks::.cpu.inst   207.147812                       # Average occupied blocks per requestor
system.cpu.icache.tags.occ_percent::.cpu.inst     0.809171                       # Average percentage of cache occupancy
system.cpu.icache.tags.occ_percent::total     0.809171                       # Average percentage of cache occupancy
system.cpu.icache.tags.occ_task_id_blocks::1024          223                       # Occupied blocks per task id
system.cpu.icache.tags.age_task_id_blocks_1024::0           51                       # Occupied blocks per task id
system.cpu.icache.tags.age_task_id_blocks_1024::3          172                       # Occupied blocks per task id
system.cpu.icache.tags.occ_task_id_percent::1024     0.871094                       # Percentage of cache occupancy per task id
system.cpu.icache.tags.tag_accesses            683102                       # Number of tag accesses
system.cpu.icache.tags.data_accesses           683102                       # Number of data accesses
system.cpu.icache.tags.power_state.pwrStateResidencyTicks::UNDEFINED   1721379500                       # Cumulative time (in ticks) in various power states
system.cpu.dtb.walker.power_state.pwrStateResidencyTicks::UNDEFINED   1721379500                       # Cumulative time (in ticks) in various power states
system.cpu.dtb.stage2_mmu.stage2_tlb.walker.power_state.pwrStateResidencyTicks::UNDEFINED   1721379500                       # Cumulative time (in ticks) in various power states
system.cpu.itb.walker.power_state.pwrStateResidencyTicks::UNDEFINED   1721379500                       # Cumulative time (in ticks) in various power states
system.cpu.itb.stage2_mmu.stage2_tlb.walker.power_state.pwrStateResidencyTicks::UNDEFINED   1721379500                       # Cumulative time (in ticks) in various power states
system.cpu.dcache.demand_hits::.cpu.data      1098067                       # number of demand (read+write) hits
system.cpu.dcache.demand_hits::total          1098067                       # number of demand (read+write) hits
system.cpu.dcache.overall_hits::.cpu.data      1098067                       # number of overall hits
system.cpu.dcache.overall_hits::total         1098067                       # number of overall hits
system.cpu.dcache.demand_misses::.cpu.data          709                       # number of demand (read+write) misses
system.cpu.dcache.demand_misses::total            709                       # number of demand (read+write) misses
system.cpu.dcache.overall_misses::.cpu.data          709                       # number of overall misses
system.cpu.dcache.overall_misses::total           709                       # number of overall misses
system.cpu.dcache.demand_miss_latency::.cpu.data     50298497                       # number of demand (read+write) miss cycles
system.cpu.dcache.demand_miss_latency::total     50298497                       # number of demand (read+write) miss cycles
system.cpu.dcache.overall_miss_latency::.cpu.data     50298497                       # number of overall miss cycles
system.cpu.dcache.overall_miss_latency::total     50298497                       # number of overall miss cycles
system.cpu.dcache.demand_accesses::.cpu.data      1098776                       # number of demand (read+write) accesses
system.cpu.dcache.demand_accesses::total      1098776                       # number of demand (read+write) accesses
system.cpu.dcache.overall_accesses::.cpu.data      1098776                       # number of overall (read+write) accesses
system.cpu.dcache.overall_accesses::total      1098776                       # number of overall (read+write) accesses
system.cpu.dcache.demand_miss_rate::.cpu.data     0.000645                       # miss rate for demand accesses
system.cpu.dcache.demand_miss_rate::total     0.000645                       # miss rate for demand accesses
system.cpu.dcache.overall_miss_rate::.cpu.data     0.000645                       # miss rate for overall accesses
system.cpu.dcache.overall_miss_rate::total     0.000645                       # miss rate for overall accesses
system.cpu.dcache.demand_avg_miss_latency::.cpu.data 70942.873061                       # average overall miss latency
system.cpu.dcache.demand_avg_miss_latency::total 70942.873061                       # average overall miss latency
system.cpu.dcache.overall_avg_miss_latency::.cpu.data 70942.873061                       # average overall miss latency
system.cpu.dcache.overall_avg_miss_latency::total 70942.873061                       # average overall miss latency
system.cpu.dcache.blocked_cycles::no_mshrs          269                       # number of cycles access was blocked
system.cpu.dcache.blocked_cycles::no_targets            0                       # number of cycles access was blocked
system.cpu.dcache.blocked::no_mshrs                10                       # number of cycles access was blocked
system.cpu.dcache.blocked::no_targets               0                       # number of cycles access was blocked
system.cpu.dcache.avg_blocked_cycles::no_mshrs    26.900000                       # average number of cycles each access was blocked
system.cpu.dcache.avg_blocked_cycles::no_targets          nan                       # average number of cycles each access was blocked
system.cpu.dcache.demand_mshr_hits::.cpu.data          531                       # number of demand (read+write) MSHR hits
system.cpu.dcache.demand_mshr_hits::total          531                       # number of demand (read+write) MSHR hits
system.cpu.dcache.overall_mshr_hits::.cpu.data          531                       # number of overall MSHR hits
system.cpu.dcache.overall_mshr_hits::total          531                       # number of overall MSHR hits
system.cpu.dcache.demand_mshr_misses::.cpu.data          178                       # number of demand (read+write) MSHR misses
system.cpu.dcache.demand_mshr_misses::total          178                       # number of demand (read+write) MSHR misses
system.cpu.dcache.overall_mshr_misses::.cpu.data          178                       # number of overall MSHR misses
system.cpu.dcache.overall_mshr_misses::total          178                       # number of overall MSHR misses
system.cpu.dcache.demand_mshr_miss_latency::.cpu.data     13763998                       # number of demand (read+write) MSHR miss cycles
system.cpu.dcache.demand_mshr_miss_latency::total     13763998                       # number of demand (read+write) MSHR miss cycles
system.cpu.dcache.overall_mshr_miss_latency::.cpu.data     13763998                       # number of overall MSHR miss cycles
system.cpu.dcache.overall_mshr_miss_latency::total     13763998                       # number of overall MSHR miss cycles
system.cpu.dcache.demand_mshr_miss_rate::.cpu.data     0.000162                       # mshr miss rate for demand accesses
system.cpu.dcache.demand_mshr_miss_rate::total     0.000162                       # mshr miss rate for demand accesses
system.cpu.dcache.overall_mshr_miss_rate::.cpu.data     0.000162                       # mshr miss rate for overall accesses
system.cpu.dcache.overall_mshr_miss_rate::total     0.000162                       # mshr miss rate for overall accesses
system.cpu.dcache.demand_avg_mshr_miss_latency::.cpu.data 77325.831461                       # average overall mshr miss latency
system.cpu.dcache.demand_avg_mshr_miss_latency::total 77325.831461                       # average overall mshr miss latency
system.cpu.dcache.overall_avg_mshr_miss_latency::.cpu.data 77325.831461                       # average overall mshr miss latency
system.cpu.dcache.overall_avg_mshr_miss_latency::total 77325.831461                       # average overall mshr miss latency
system.cpu.dcache.replacements                      0                       # number of replacements
system.cpu.dcache.ReadReq_hits::.cpu.data       313370                       # number of ReadReq hits
system.cpu.dcache.ReadReq_hits::total          313370                       # number of ReadReq hits
system.cpu.dcache.ReadReq_misses::.cpu.data          239                       # number of ReadReq misses
system.cpu.dcache.ReadReq_misses::total           239                       # number of ReadReq misses
system.cpu.dcache.ReadReq_miss_latency::.cpu.data     14806500                       # number of ReadReq miss cycles
system.cpu.dcache.ReadReq_miss_latency::total     14806500                       # number of ReadReq miss cycles
system.cpu.dcache.ReadReq_accesses::.cpu.data       313609                       # number of ReadReq accesses(hits+misses)
system.cpu.dcache.ReadReq_accesses::total       313609                       # number of ReadReq accesses(hits+misses)
system.cpu.dcache.ReadReq_miss_rate::.cpu.data     0.000762                       # miss rate for ReadReq accesses
system.cpu.dcache.ReadReq_miss_rate::total     0.000762                       # miss rate for ReadReq accesses
system.cpu.dcache.ReadReq_avg_miss_latency::.cpu.data 61951.882845                       # average ReadReq miss latency
system.cpu.dcache.ReadReq_avg_miss_latency::total 61951.882845                       # average ReadReq miss latency
system.cpu.dcache.ReadReq_mshr_hits::.cpu.data          117                       # number of ReadReq MSHR hits
system.cpu.dcache.ReadReq_mshr_hits::total          117                       # number of ReadReq MSHR hits
system.cpu.dcache.ReadReq_mshr_misses::.cpu.data          122                       # number of ReadReq MSHR misses
system.cpu.dcache.ReadReq_mshr_misses::total          122                       # number of ReadReq MSHR misses
system.cpu.dcache.ReadReq_mshr_miss_latency::.cpu.data      8683500                       # number of ReadReq MSHR miss cycles
system.cpu.dcache.ReadReq_mshr_miss_latency::total      8683500                       # number of ReadReq MSHR miss cycles
system.cpu.dcache.ReadReq_mshr_miss_rate::.cpu.data     0.000389                       # mshr miss rate for ReadReq accesses
system.cpu.dcache.ReadReq_mshr_miss_rate::total     0.000389                       # mshr miss rate for ReadReq accesses
system.cpu.dcache.ReadReq_avg_mshr_miss_latency::.cpu.data 71176.229508                       # average ReadReq mshr miss latency
system.cpu.dcache.ReadReq_avg_mshr_miss_latency::total 71176.229508                       # average ReadReq mshr miss latency
system.cpu.dcache.WriteReq_hits::.cpu.data       784697                       # number of WriteReq hits
system.cpu.dcache.WriteReq_hits::total         784697                       # number of WriteReq hits
system.cpu.dcache.WriteReq_misses::.cpu.data          470                       # number of WriteReq misses
system.cpu.dcache.WriteReq_misses::total          470                       # number of WriteReq misses
system.cpu.dcache.WriteReq_miss_latency::.cpu.data     35491997                       # number of WriteReq miss cycles
system.cpu.dcache.WriteReq_miss_latency::total     35491997                       # number of WriteReq miss cycles
system.cpu.dcache.WriteReq_accesses::.cpu.data       785167                       # number of WriteReq accesses(hits+misses)
system.cpu.dcache.WriteReq_accesses::total       785167                       # number of WriteReq accesses(hits+misses)
system.cpu.dcache.WriteReq_miss_rate::.cpu.data     0.000599                       # miss rate for WriteReq accesses
system.cpu.dcache.WriteReq_miss_rate::total     0.000599                       # miss rate for WriteReq accesses
system.cpu.dcache.WriteReq_avg_miss_latency::.cpu.data 75514.887234                       # average WriteReq miss latency
system.cpu.dcache.WriteReq_avg_miss_latency::total 75514.887234                       # average WriteReq miss latency
system.cpu.dcache.WriteReq_mshr_hits::.cpu.data          414                       # number of WriteReq MSHR hits
system.cpu.dcache.WriteReq_mshr_hits::total          414                       # number of WriteReq MSHR hits
system.cpu.dcache.WriteReq_mshr_misses::.cpu.data           56                       # number of WriteReq MSHR misses
system.cpu.dcache.WriteReq_mshr_misses::total           56                       # number of WriteReq MSHR misses
system.cpu.dcache.WriteReq_mshr_miss_latency::.cpu.data      5080498                       # number of WriteReq MSHR miss cycles
system.cpu.dcache.WriteReq_mshr_miss_latency::total      5080498                       # number of WriteReq MSHR miss cycles
system.cpu.dcache.WriteReq_mshr_miss_rate::.cpu.data     0.000071                       # mshr miss rate for WriteReq accesses
system.cpu.dcache.WriteReq_mshr_miss_rate::total     0.000071                       # mshr miss rate for WriteReq accesses
system.cpu.dcache.WriteReq_avg_mshr_miss_latency::.cpu.data 90723.178571                       # average WriteReq mshr miss latency
system.cpu.dcache.WriteReq_avg_mshr_miss_latency::total 90723.178571                       # average WriteReq mshr miss latency
system.cpu.dcache.LoadLockedReq_hits::.cpu.data           13                       # number of LoadLockedReq hits
system.cpu.dcache.LoadLockedReq_hits::total           13                       # number of LoadLockedReq hits
system.cpu.dcache.LoadLockedReq_misses::.cpu.data            1                       # number of LoadLockedReq misses
system.cpu.dcache.LoadLockedReq_misses::total            1                       # number of LoadLockedReq misses
system.cpu.dcache.LoadLockedReq_miss_latency::.cpu.data        30500                       # number of LoadLockedReq miss cycles
system.cpu.dcache.LoadLockedReq_miss_latency::total        30500                       # number of LoadLockedReq miss cycles
system.cpu.dcache.LoadLockedReq_accesses::.cpu.data           14                       # number of LoadLockedReq accesses(hits+misses)
system.cpu.dcache.LoadLockedReq_accesses::total           14                       # number of LoadLockedReq accesses(hits+misses)
system.cpu.dcache.LoadLockedReq_miss_rate::.cpu.data     0.071429                       # miss rate for LoadLockedReq accesses
system.cpu.dcache.LoadLockedReq_miss_rate::total     0.071429                       # miss rate for LoadLockedReq accesses
system.cpu.dcache.LoadLockedReq_avg_miss_latency::.cpu.data        30500                       # average LoadLockedReq miss latency
system.cpu.dcache.LoadLockedReq_avg_miss_latency::total        30500                       # average LoadLockedReq miss latency
system.cpu.dcache.LoadLockedReq_mshr_hits::.cpu.data            1                       # number of LoadLockedReq MSHR hits
system.cpu.dcache.LoadLockedReq_mshr_hits::total            1                       # number of LoadLockedReq MSHR hits
system.cpu.dcache.StoreCondReq_hits::.cpu.data           14                       # number of StoreCondReq hits
system.cpu.dcache.StoreCondReq_hits::total           14                       # number of StoreCondReq hits
system.cpu.dcache.StoreCondReq_accesses::.cpu.data           14                       # number of StoreCondReq accesses(hits+misses)
system.cpu.dcache.StoreCondReq_accesses::total           14                       # number of StoreCondReq accesses(hits+misses)
system.cpu.dcache.power_state.pwrStateResidencyTicks::UNDEFINED   1721379500                       # Cumulative time (in ticks) in various power states
system.cpu.dcache.tags.tagsinuse           162.293108                       # Cycle average of tags in use
system.cpu.dcache.tags.total_refs             1098272                       # Total number of references to valid blocks.
system.cpu.dcache.tags.sampled_refs               178                       # Sample count of references to valid blocks.
system.cpu.dcache.tags.avg_refs           6170.067416                       # Average number of references to valid blocks.
system.cpu.dcache.tags.warmup_cycle            161000                       # Cycle when the warmup percentage was hit.
system.cpu.dcache.tags.occ_blocks::.cpu.data   162.293108                       # Average occupied blocks per requestor
system.cpu.dcache.tags.occ_percent::.cpu.data     0.158489                       # Average percentage of cache occupancy
system.cpu.dcache.tags.occ_percent::total     0.158489                       # Average percentage of cache occupancy
system.cpu.dcache.tags.occ_task_id_blocks::1024          178                       # Occupied blocks per task id
system.cpu.dcache.tags.age_task_id_blocks_1024::0           15                       # Occupied blocks per task id
system.cpu.dcache.tags.age_task_id_blocks_1024::3          163                       # Occupied blocks per task id
system.cpu.dcache.tags.occ_task_id_percent::1024     0.173828                       # Percentage of cache occupancy per task id
system.cpu.dcache.tags.tag_accesses           2197786                       # Number of tag accesses
system.cpu.dcache.tags.data_accesses          2197786                       # Number of data accesses
system.cpu.dcache.tags.power_state.pwrStateResidencyTicks::UNDEFINED   1721379500                       # Cumulative time (in ticks) in various power states
system.cpu.power_state.pwrStateResidencyTicks::ON   1721379500                       # Cumulative time (in ticks) in various power states

---------- End Simulation Statistics   ----------
