
---------- Begin Simulation Statistics ----------
final_tick                                 1087262000                       # Number of ticks from beginning of simulation (restored from checkpoints and never reset)
host_inst_rate                                 293412                       # Simulator instruction rate (inst/s)
host_mem_usage                                 715732                       # Number of bytes of host memory used
host_op_rate                                   293497                       # Simulator op (including micro ops) rate (op/s)
host_seconds                                    12.90                       # Real time elapsed on the host
host_tick_rate                               84262147                       # Simulator tick rate (ticks/s)
sim_freq                                 1000000000000                       # Frequency of simulated ticks
sim_insts                                     3785959                       # Number of instructions simulated
sim_ops                                       3787084                       # Number of ops (including micro ops) simulated
sim_seconds                                  0.001087                       # Number of seconds simulated
sim_ticks                                  1087262000                       # Number of ticks simulated
system.cpu.branchPred.BTBCorrect                    0                       # Number of correct BTB predictions (this stat may not work properly.
system.cpu.branchPred.BTBHitPct             99.737958                       # BTB Hit Percentage
system.cpu.branchPred.BTBHits                  164808                       # Number of BTB hits
system.cpu.branchPred.BTBLookups               165241                       # Number of BTB lookups
system.cpu.branchPred.RASInCorrect                 26                       # Number of incorrect RAS predictions.
system.cpu.branchPred.condIncorrect              1345                       # Number of conditional branches incorrect
system.cpu.branchPred.condPredicted            261344                       # Number of conditional branches predicted
system.cpu.branchPred.indirectHits               1263                       # Number of indirect target hits.
system.cpu.branchPred.indirectLookups            1481                       # Number of indirect predictor lookups.
system.cpu.branchPred.indirectMisses              218                       # Number of indirect misses.
system.cpu.branchPred.lookups                  416016                       # Number of BP lookups
system.cpu.branchPred.loop_predictor.loopPredictorCorrect          685                       # Number of times the loop predictor is the provider and the prediction is correct
system.cpu.branchPred.loop_predictor.loopPredictorWrong           15                       # Number of times the loop predictor is the provider and the prediction is wrong
system.cpu.branchPred.statistical_corrector.scPredictorCorrect           65                       # Number of time the SC predictor is the provider and the prediction is correct
system.cpu.branchPred.statistical_corrector.scPredictorWrong           64                       # Number of time the SC predictor is the provider and the prediction is wrong
system.cpu.branchPred.tage.bimodalAltMatchProviderCorrect           72                       # Number of times TAGE Alt Match is the bimodal and it is the provider and the prediction is correct
system.cpu.branchPred.tage.bimodalAltMatchProviderWrong           24                       # Number of times TAGE Alt Match is the bimodal and it is the provider and the prediction is wrong
system.cpu.branchPred.tage.tageAltMatchProvider::0         6342                       # TAGE provider for alt match
system.cpu.branchPred.tage.tageAltMatchProvider::1            0                       # TAGE provider for alt match
system.cpu.branchPred.tage.tageAltMatchProvider::2         4486                       # TAGE provider for alt match
system.cpu.branchPred.tage.tageAltMatchProvider::3            0                       # TAGE provider for alt match
system.cpu.branchPred.tage.tageAltMatchProvider::4         4768                       # TAGE provider for alt match
system.cpu.branchPred.tage.tageAltMatchProvider::5            0                       # TAGE provider for alt match
system.cpu.branchPred.tage.tageAltMatchProvider::6          260                       # TAGE provider for alt match
system.cpu.branchPred.tage.tageAltMatchProvider::7         9296                       # TAGE provider for alt match
system.cpu.branchPred.tage.tageAltMatchProvider::8          268                       # TAGE provider for alt match
system.cpu.branchPred.tage.tageAltMatchProvider::9          104                       # TAGE provider for alt match
system.cpu.branchPred.tage.tageAltMatchProvider::10         6900                       # TAGE provider for alt match
system.cpu.branchPred.tage.tageAltMatchProvider::11        12869                       # TAGE provider for alt match
system.cpu.branchPred.tage.tageAltMatchProvider::12          819                       # TAGE provider for alt match
system.cpu.branchPred.tage.tageAltMatchProvider::13          806                       # TAGE provider for alt match
system.cpu.branchPred.tage.tageAltMatchProvider::14        36589                       # TAGE provider for alt match
system.cpu.branchPred.tage.tageAltMatchProvider::15         7736                       # TAGE provider for alt match
system.cpu.branchPred.tage.tageAltMatchProvider::16         2863                       # TAGE provider for alt match
system.cpu.branchPred.tage.tageAltMatchProvider::17         8838                       # TAGE provider for alt match
system.cpu.branchPred.tage.tageAltMatchProvider::18         5070                       # TAGE provider for alt match
system.cpu.branchPred.tage.tageAltMatchProvider::19         1800                       # TAGE provider for alt match
system.cpu.branchPred.tage.tageAltMatchProvider::20        10799                       # TAGE provider for alt match
system.cpu.branchPred.tage.tageAltMatchProvider::21            0                       # TAGE provider for alt match
system.cpu.branchPred.tage.tageAltMatchProvider::22         9325                       # TAGE provider for alt match
system.cpu.branchPred.tage.tageAltMatchProvider::23            0                       # TAGE provider for alt match
system.cpu.branchPred.tage.tageAltMatchProvider::24         5245                       # TAGE provider for alt match
system.cpu.branchPred.tage.tageAltMatchProvider::25            0                       # TAGE provider for alt match
system.cpu.branchPred.tage.tageAltMatchProvider::26          977                       # TAGE provider for alt match
system.cpu.branchPred.tage.tageAltMatchProvider::27            0                       # TAGE provider for alt match
system.cpu.branchPred.tage.tageAltMatchProvider::28         1516                       # TAGE provider for alt match
system.cpu.branchPred.tage.tageAltMatchProvider::29            0                       # TAGE provider for alt match
system.cpu.branchPred.tage.tageAltMatchProvider::30            0                       # TAGE provider for alt match
system.cpu.branchPred.tage.tageAltMatchProviderCorrect          417                       # Number of times TAGE Alt Match is the provider and the prediction is correct
system.cpu.branchPred.tage.tageAltMatchProviderWouldHaveHit           47                       # Number of times TAGE Longest Match is the provider, the prediction is wrong and Alt Match prediction was correct
system.cpu.branchPred.tage.tageAltMatchProviderWrong          148                       # Number of times TAGE Alt Match is the provider and the prediction is wrong
system.cpu.branchPred.tage.tageBimodalProviderCorrect       109700                       # Number of times there are no hits on the TAGE tables and the bimodal prediction is correct
system.cpu.branchPred.tage.tageBimodalProviderWrong          257                       # Number of times there are no hits on the TAGE tables and the bimodal prediction is wrong
system.cpu.branchPred.tage.tageLongestMatchProvider::0            0                       # TAGE provider for longest match
system.cpu.branchPred.tage.tageLongestMatchProvider::1            0                       # TAGE provider for longest match
system.cpu.branchPred.tage.tageLongestMatchProvider::2         2030                       # TAGE provider for longest match
system.cpu.branchPred.tage.tageLongestMatchProvider::3            0                       # TAGE provider for longest match
system.cpu.branchPred.tage.tageLongestMatchProvider::4          608                       # TAGE provider for longest match
system.cpu.branchPred.tage.tageLongestMatchProvider::5            0                       # TAGE provider for longest match
system.cpu.branchPred.tage.tageLongestMatchProvider::6         1349                       # TAGE provider for longest match
system.cpu.branchPred.tage.tageLongestMatchProvider::7         4247                       # TAGE provider for longest match
system.cpu.branchPred.tage.tageLongestMatchProvider::8         4817                       # TAGE provider for longest match
system.cpu.branchPred.tage.tageLongestMatchProvider::9          239                       # TAGE provider for longest match
system.cpu.branchPred.tage.tageLongestMatchProvider::10        11826                       # TAGE provider for longest match
system.cpu.branchPred.tage.tageLongestMatchProvider::11         4450                       # TAGE provider for longest match
system.cpu.branchPred.tage.tageLongestMatchProvider::12         2639                       # TAGE provider for longest match
system.cpu.branchPred.tage.tageLongestMatchProvider::13          995                       # TAGE provider for longest match
system.cpu.branchPred.tage.tageLongestMatchProvider::14        12677                       # TAGE provider for longest match
system.cpu.branchPred.tage.tageLongestMatchProvider::15         7334                       # TAGE provider for longest match
system.cpu.branchPred.tage.tageLongestMatchProvider::16        26589                       # TAGE provider for longest match
system.cpu.branchPred.tage.tageLongestMatchProvider::17         6492                       # TAGE provider for longest match
system.cpu.branchPred.tage.tageLongestMatchProvider::18          394                       # TAGE provider for longest match
system.cpu.branchPred.tage.tageLongestMatchProvider::19         4392                       # TAGE provider for longest match
system.cpu.branchPred.tage.tageLongestMatchProvider::20        15790                       # TAGE provider for longest match
system.cpu.branchPred.tage.tageLongestMatchProvider::21            0                       # TAGE provider for longest match
system.cpu.branchPred.tage.tageLongestMatchProvider::22         6607                       # TAGE provider for longest match
system.cpu.branchPred.tage.tageLongestMatchProvider::23            0                       # TAGE provider for longest match
system.cpu.branchPred.tage.tageLongestMatchProvider::24        10604                       # TAGE provider for longest match
system.cpu.branchPred.tage.tageLongestMatchProvider::25            0                       # TAGE provider for longest match
system.cpu.branchPred.tage.tageLongestMatchProvider::26         8386                       # TAGE provider for longest match
system.cpu.branchPred.tage.tageLongestMatchProvider::27            0                       # TAGE provider for longest match
system.cpu.branchPred.tage.tageLongestMatchProvider::28         3679                       # TAGE provider for longest match
system.cpu.branchPred.tage.tageLongestMatchProvider::29            0                       # TAGE provider for longest match
system.cpu.branchPred.tage.tageLongestMatchProvider::30         1532                       # TAGE provider for longest match
system.cpu.branchPred.tage.tageLongestMatchProviderCorrect       136754                       # Number of times TAGE Longest Match is the provider and the prediction is correct
system.cpu.branchPred.tage.tageLongestMatchProviderWouldHaveHit           58                       # Number of times TAGE Alt Match is the provider, the prediction is wrong and Longest Match prediction was correct
system.cpu.branchPred.tage.tageLongestMatchProviderWrong          357                       # Number of times TAGE Longest Match is the provider and the prediction is wrong
system.cpu.branchPred.usedRAS                   51046                       # Number of times the RAS was used to get a target.
system.cpu.branchPred.wormholepredictor.whPredictorCorrect         6588                       # Number of time the WH predictor is the provider and the prediction is correct
system.cpu.branchPred.wormholepredictor.whPredictorWrong           77                       # Number of time the WH predictor is the provider and the prediction is wrong
system.cpu.branchPredindirectMispredicted          203                       # Number of mispredicted indirect branches.
system.cpu.cc_regfile_reads                  13909642                       # number of cc regfile reads
system.cpu.cc_regfile_writes                   876239                       # number of cc regfile writes
system.cpu.commit.amos                              0                       # Number of atomic instructions committed
system.cpu.commit.branchMispredicts              1181                       # The number of times a branch was mispredicted
system.cpu.commit.branches                     406311                       # Number of branches committed
system.cpu.commit.bw_lim_events                241193                       # number cycles where commit BW limit reached
system.cpu.commit.commitNonSpecStalls              37                       # The number of times commit has been forced to stall to communicate backwards
system.cpu.commit.commitSquashedInsts           47119                       # The number of squashed insts skipped by commit
system.cpu.commit.committedInsts              3785959                       # Number of instructions committed
system.cpu.commit.committedOps                3787084                       # Number of ops (including micro ops) committed
system.cpu.commit.committed_per_cycle::samples      2145191                       # Number of insts commited each cycle
system.cpu.commit.committed_per_cycle::mean     1.765383                       # Number of insts commited each cycle
system.cpu.commit.committed_per_cycle::stdev     2.337059                       # Number of insts commited each cycle
system.cpu.commit.committed_per_cycle::underflows            0      0.00%      0.00% # Number of insts commited each cycle
system.cpu.commit.committed_per_cycle::0       459385     21.41%     21.41% # Number of insts commited each cycle
system.cpu.commit.committed_per_cycle::1      1140331     53.16%     74.57% # Number of insts commited each cycle
system.cpu.commit.committed_per_cycle::2       216424     10.09%     84.66% # Number of insts commited each cycle
system.cpu.commit.committed_per_cycle::3        77671      3.62%     88.28% # Number of insts commited each cycle
system.cpu.commit.committed_per_cycle::4          617      0.03%     88.31% # Number of insts commited each cycle
system.cpu.commit.committed_per_cycle::5         8780      0.41%     88.72% # Number of insts commited each cycle
system.cpu.commit.committed_per_cycle::6          550      0.03%     88.75% # Number of insts commited each cycle
system.cpu.commit.committed_per_cycle::7          240      0.01%     88.76% # Number of insts commited each cycle
system.cpu.commit.committed_per_cycle::8       241193     11.24%    100.00% # Number of insts commited each cycle
system.cpu.commit.committed_per_cycle::overflows            0      0.00%    100.00% # Number of insts commited each cycle
system.cpu.commit.committed_per_cycle::min_value            0                       # Number of insts commited each cycle
system.cpu.commit.committed_per_cycle::max_value            8                       # Number of insts commited each cycle
system.cpu.commit.committed_per_cycle::total      2145191                       # Number of insts commited each cycle
system.cpu.commit.fp_insts                          0                       # Number of committed floating point instructions.
system.cpu.commit.function_calls                50123                       # Number of function calls committed.
system.cpu.commit.int_insts                   3482031                       # Number of committed integer instructions.
system.cpu.commit.loads                        829893                       # Number of loads committed
system.cpu.commit.membars                          14                       # Number of memory barriers committed
system.cpu.commit.op_class_0::No_OpClass            0      0.00%      0.00% # Class of committed instruction
system.cpu.commit.op_class_0::IntAlu          2340035     61.79%     61.79% # Class of committed instruction
system.cpu.commit.op_class_0::IntMult          100003      2.64%     64.43% # Class of committed instruction
system.cpu.commit.op_class_0::IntDiv                0      0.00%     64.43% # Class of committed instruction
system.cpu.commit.op_class_0::FloatAdd              0      0.00%     64.43% # Class of committed instruction
system.cpu.commit.op_class_0::FloatCmp              0      0.00%     64.43% # Class of committed instruction
system.cpu.commit.op_class_0::FloatCvt              0      0.00%     64.43% # Class of committed instruction
system.cpu.commit.op_class_0::FloatMult             0      0.00%     64.43% # Class of committed instruction
system.cpu.commit.op_class_0::FloatMultAcc            0      0.00%     64.43% # Class of committed instruction
system.cpu.commit.op_class_0::FloatDiv              0      0.00%     64.43% # Class of committed instruction
system.cpu.commit.op_class_0::FloatMisc             0      0.00%     64.43% # Class of committed instruction
system.cpu.commit.op_class_0::FloatSqrt             0      0.00%     64.43% # Class of committed instruction
system.cpu.commit.op_class_0::SimdAdd               0      0.00%     64.43% # Class of committed instruction
system.cpu.commit.op_class_0::SimdAddAcc            0      0.00%     64.43% # Class of committed instruction
system.cpu.commit.op_class_0::SimdAlu               0      0.00%     64.43% # Class of committed instruction
system.cpu.commit.op_class_0::SimdCmp               0      0.00%     64.43% # Class of committed instruction
system.cpu.commit.op_class_0::SimdCvt               0      0.00%     64.43% # Class of committed instruction
system.cpu.commit.op_class_0::SimdMisc              0      0.00%     64.43% # Class of committed instruction
system.cpu.commit.op_class_0::SimdMult              0      0.00%     64.43% # Class of committed instruction
system.cpu.commit.op_class_0::SimdMultAcc            0      0.00%     64.43% # Class of committed instruction
system.cpu.commit.op_class_0::SimdShift             0      0.00%     64.43% # Class of committed instruction
system.cpu.commit.op_class_0::SimdShiftAcc            0      0.00%     64.43% # Class of committed instruction
system.cpu.commit.op_class_0::SimdDiv               0      0.00%     64.43% # Class of committed instruction
system.cpu.commit.op_class_0::SimdSqrt              0      0.00%     64.43% # Class of committed instruction
system.cpu.commit.op_class_0::SimdFloatAdd            0      0.00%     64.43% # Class of committed instruction
system.cpu.commit.op_class_0::SimdFloatAlu            0      0.00%     64.43% # Class of committed instruction
system.cpu.commit.op_class_0::SimdFloatCmp            0      0.00%     64.43% # Class of committed instruction
system.cpu.commit.op_class_0::SimdFloatCvt            0      0.00%     64.43% # Class of committed instruction
system.cpu.commit.op_class_0::SimdFloatDiv            0      0.00%     64.43% # Class of committed instruction
system.cpu.commit.op_class_0::SimdFloatMisc            0      0.00%     64.43% # Class of committed instruction
system.cpu.commit.op_class_0::SimdFloatMult            0      0.00%     64.43% # Class of committed instruction
system.cpu.commit.op_class_0::SimdFloatMultAcc            0      0.00%     64.43% # Class of committed instruction
system.cpu.commit.op_class_0::SimdFloatSqrt            0      0.00%     64.43% # Class of committed instruction
system.cpu.commit.op_class_0::SimdReduceAdd            0      0.00%     64.43% # Class of committed instruction
system.cpu.commit.op_class_0::SimdReduceAlu            0      0.00%     64.43% # Class of committed instruction
system.cpu.commit.op_class_0::SimdReduceCmp            0      0.00%     64.43% # Class of committed instruction
system.cpu.commit.op_class_0::SimdFloatReduceAdd            0      0.00%     64.43% # Class of committed instruction
system.cpu.commit.op_class_0::SimdFloatReduceCmp            0      0.00%     64.43% # Class of committed instruction
system.cpu.commit.op_class_0::SimdAes               0      0.00%     64.43% # Class of committed instruction
system.cpu.commit.op_class_0::SimdAesMix            0      0.00%     64.43% # Class of committed instruction
system.cpu.commit.op_class_0::SimdSha1Hash            0      0.00%     64.43% # Class of committed instruction
system.cpu.commit.op_class_0::SimdSha1Hash2            0      0.00%     64.43% # Class of committed instruction
system.cpu.commit.op_class_0::SimdSha256Hash            0      0.00%     64.43% # Class of committed instruction
system.cpu.commit.op_class_0::SimdSha256Hash2            0      0.00%     64.43% # Class of committed instruction
system.cpu.commit.op_class_0::SimdShaSigma2            0      0.00%     64.43% # Class of committed instruction
system.cpu.commit.op_class_0::SimdShaSigma3            0      0.00%     64.43% # Class of committed instruction
system.cpu.commit.op_class_0::SimdPredAlu            0      0.00%     64.43% # Class of committed instruction
system.cpu.commit.op_class_0::MemRead          829893     21.91%     86.34% # Class of committed instruction
system.cpu.commit.op_class_0::MemWrite         517153     13.66%    100.00% # Class of committed instruction
system.cpu.commit.op_class_0::FloatMemRead            0      0.00%    100.00% # Class of committed instruction
system.cpu.commit.op_class_0::FloatMemWrite            0      0.00%    100.00% # Class of committed instruction
system.cpu.commit.op_class_0::IprAccess             0      0.00%    100.00% # Class of committed instruction
system.cpu.commit.op_class_0::InstPrefetch            0      0.00%    100.00% # Class of committed instruction
system.cpu.commit.op_class_0::total           3787084                       # Class of committed instruction
system.cpu.commit.refs                        1347046                       # Number of memory references committed
system.cpu.commit.swp_count                         0                       # Number of s/w prefetches committed
system.cpu.commit.vec_insts                         0                       # Number of committed Vector instructions.
system.cpu.committedInsts                     3785959                       # Number of Instructions Simulated
system.cpu.committedOps                       3787084                       # Number of Ops (including micro ops) Simulated
system.cpu.cpi                               0.574366                       # CPI: Cycles Per Instruction
system.cpu.cpi_total                         0.574366                       # CPI: Total CPI of All Threads
system.cpu.decode.BlockedCycles               1509948                       # Number of cycles decode is blocked
system.cpu.decode.BranchMispred                   170                       # Number of times decode detected a branch misprediction
system.cpu.decode.BranchResolved               163848                       # Number of times decode resolved a branch
system.cpu.decode.DecodedInsts                3845361                       # Number of instructions handled by decode
system.cpu.decode.IdleCycles                   155614                       # Number of cycles decode is idle
system.cpu.decode.RunCycles                     65120                       # Number of cycles decode is running
system.cpu.decode.SquashCycles                   1376                       # Number of cycles decode is squashing
system.cpu.decode.SquashedInsts                   644                       # Number of squashed instructions handled by decode
system.cpu.decode.UnblockCycles                419832                       # Number of cycles decode is unblocking
system.cpu.dtb.accesses                             0                       # DTB accesses
system.cpu.dtb.align_faults                         0                       # Number of TLB faults due to alignment restrictions
system.cpu.dtb.domain_faults                        0                       # Number of TLB faults due to domain restrictions
system.cpu.dtb.flush_entries                        0                       # Number of entries that have been flushed from TLB
system.cpu.dtb.flush_tlb                            0                       # Number of times complete TLB was flushed
system.cpu.dtb.flush_tlb_asid                       0                       # Number of times TLB was flushed by ASID
system.cpu.dtb.flush_tlb_mva                        0                       # Number of times TLB was flushed by MVA
system.cpu.dtb.flush_tlb_mva_asid                   0                       # Number of times TLB was flushed by MVA & ASID
system.cpu.dtb.hits                                 0                       # DTB hits
system.cpu.dtb.inst_accesses                        0                       # ITB inst accesses
system.cpu.dtb.inst_hits                            0                       # ITB inst hits
system.cpu.dtb.inst_misses                          0                       # ITB inst misses
system.cpu.dtb.misses                               0                       # DTB misses
system.cpu.dtb.perms_faults                         0                       # Number of TLB faults due to permissions restrictions
system.cpu.dtb.prefetch_faults                      0                       # Number of TLB faults due to prefetch
system.cpu.dtb.read_accesses                        0                       # DTB read accesses
system.cpu.dtb.read_hits                            0                       # DTB read hits
system.cpu.dtb.read_misses                          0                       # DTB read misses
system.cpu.dtb.stage2_mmu.stage2_tlb.accesses            0                       # DTB accesses
system.cpu.dtb.stage2_mmu.stage2_tlb.align_faults            0                       # Number of TLB faults due to alignment restrictions
system.cpu.dtb.stage2_mmu.stage2_tlb.domain_faults            0                       # Number of TLB faults due to domain restrictions
system.cpu.dtb.stage2_mmu.stage2_tlb.flush_entries            0                       # Number of entries that have been flushed from TLB
system.cpu.dtb.stage2_mmu.stage2_tlb.flush_tlb            0                       # Number of times complete TLB was flushed
system.cpu.dtb.stage2_mmu.stage2_tlb.flush_tlb_asid            0                       # Number of times TLB was flushed by ASID
system.cpu.dtb.stage2_mmu.stage2_tlb.flush_tlb_mva            0                       # Number of times TLB was flushed by MVA
system.cpu.dtb.stage2_mmu.stage2_tlb.flush_tlb_mva_asid            0                       # Number of times TLB was flushed by MVA & ASID
system.cpu.dtb.stage2_mmu.stage2_tlb.hits            0                       # DTB hits
system.cpu.dtb.stage2_mmu.stage2_tlb.inst_accesses            0                       # ITB inst accesses
system.cpu.dtb.stage2_mmu.stage2_tlb.inst_hits            0                       # ITB inst hits
system.cpu.dtb.stage2_mmu.stage2_tlb.inst_misses            0                       # ITB inst misses
system.cpu.dtb.stage2_mmu.stage2_tlb.misses            0                       # DTB misses
system.cpu.dtb.stage2_mmu.stage2_tlb.perms_faults            0                       # Number of TLB faults due to permissions restrictions
system.cpu.dtb.stage2_mmu.stage2_tlb.prefetch_faults            0                       # Number of TLB faults due to prefetch
system.cpu.dtb.stage2_mmu.stage2_tlb.read_accesses            0                       # DTB read accesses
system.cpu.dtb.stage2_mmu.stage2_tlb.read_hits            0                       # DTB read hits
system.cpu.dtb.stage2_mmu.stage2_tlb.read_misses            0                       # DTB read misses
system.cpu.dtb.stage2_mmu.stage2_tlb.walker.walkRequestOrigin_Requested::Data            0                       # Table walker requests started/completed, data/inst
system.cpu.dtb.stage2_mmu.stage2_tlb.walker.walkRequestOrigin_Requested::Inst            0                       # Table walker requests started/completed, data/inst
system.cpu.dtb.stage2_mmu.stage2_tlb.walker.walkRequestOrigin_Requested::total            0                       # Table walker requests started/completed, data/inst
system.cpu.dtb.stage2_mmu.stage2_tlb.walker.walkRequestOrigin_Completed::Data            0                       # Table walker requests started/completed, data/inst
system.cpu.dtb.stage2_mmu.stage2_tlb.walker.walkRequestOrigin_Completed::Inst            0                       # Table walker requests started/completed, data/inst
system.cpu.dtb.stage2_mmu.stage2_tlb.walker.walkRequestOrigin_Completed::total            0                       # Table walker requests started/completed, data/inst
system.cpu.dtb.stage2_mmu.stage2_tlb.walker.walkRequestOrigin::total            0                       # Table walker requests started/completed, data/inst
system.cpu.dtb.stage2_mmu.stage2_tlb.walker.walks            0                       # Table walker walks requested
system.cpu.dtb.stage2_mmu.stage2_tlb.write_accesses            0                       # DTB write accesses
system.cpu.dtb.stage2_mmu.stage2_tlb.write_hits            0                       # DTB write hits
system.cpu.dtb.stage2_mmu.stage2_tlb.write_misses            0                       # DTB write misses
system.cpu.dtb.walker.walkRequestOrigin_Requested::Data            0                       # Table walker requests started/completed, data/inst
system.cpu.dtb.walker.walkRequestOrigin_Requested::Inst            0                       # Table walker requests started/completed, data/inst
system.cpu.dtb.walker.walkRequestOrigin_Requested::total            0                       # Table walker requests started/completed, data/inst
system.cpu.dtb.walker.walkRequestOrigin_Completed::Data            0                       # Table walker requests started/completed, data/inst
system.cpu.dtb.walker.walkRequestOrigin_Completed::Inst            0                       # Table walker requests started/completed, data/inst
system.cpu.dtb.walker.walkRequestOrigin_Completed::total            0                       # Table walker requests started/completed, data/inst
system.cpu.dtb.walker.walkRequestOrigin::total            0                       # Table walker requests started/completed, data/inst
system.cpu.dtb.walker.walks                         0                       # Table walker walks requested
system.cpu.dtb.write_accesses                       0                       # DTB write accesses
system.cpu.dtb.write_hits                           0                       # DTB write hits
system.cpu.dtb.write_misses                         0                       # DTB write misses
system.cpu.fetch.Branches                      416016                       # Number of branches that fetch encountered
system.cpu.fetch.CacheLines                    464405                       # Number of cache lines fetched
system.cpu.fetch.Cycles                       1678915                       # Number of cycles fetch has run and was not squashing or blocked
system.cpu.fetch.IcacheSquashes                   651                       # Number of outstanding Icache misses that were squashed
system.cpu.fetch.IcacheWaitRetryStallCycles           98                       # Number of stall cycles due to full MSHR
system.cpu.fetch.Insts                        3872121                       # Number of instructions fetch has processed
system.cpu.fetch.MiscStallCycles                    9                       # Number of cycles fetch has spent waiting on interrupts, or bad addresses, or out of MSHRs
system.cpu.fetch.PendingTrapStallCycles            44                       # Number of stall cycles due to pending traps
system.cpu.fetch.SquashCycles                    3084                       # Number of cycles fetch has spent squashing
system.cpu.fetch.branchRate                  0.191314                       # Number of branch fetches per cycle
system.cpu.fetch.icacheStallCycles             471282                       # Number of cycles fetch is stalled on an Icache miss
system.cpu.fetch.predictedBranches             217117                       # Number of branches that fetch has predicted taken
system.cpu.fetch.rate                        1.780674                       # Number of inst fetches per cycle
system.cpu.fetch.rateDist::samples            2151890                       # Number of instructions fetched each cycle (Total)
system.cpu.fetch.rateDist::mean              1.800456                       # Number of instructions fetched each cycle (Total)
system.cpu.fetch.rateDist::stdev             2.855322                       # Number of instructions fetched each cycle (Total)
system.cpu.fetch.rateDist::underflows               0      0.00%      0.00% # Number of instructions fetched each cycle (Total)
system.cpu.fetch.rateDist::0                  1390438     64.61%     64.61% # Number of instructions fetched each cycle (Total)
system.cpu.fetch.rateDist::1                    87442      4.06%     68.68% # Number of instructions fetched each cycle (Total)
system.cpu.fetch.rateDist::2                    56424      2.62%     71.30% # Number of instructions fetched each cycle (Total)
system.cpu.fetch.rateDist::3                    96314      4.48%     75.78% # Number of instructions fetched each cycle (Total)
system.cpu.fetch.rateDist::4                   118399      5.50%     81.28% # Number of instructions fetched each cycle (Total)
system.cpu.fetch.rateDist::5                    38086      1.77%     83.05% # Number of instructions fetched each cycle (Total)
system.cpu.fetch.rateDist::6                    52206      2.43%     85.47% # Number of instructions fetched each cycle (Total)
system.cpu.fetch.rateDist::7                    92759      4.31%     89.78% # Number of instructions fetched each cycle (Total)
system.cpu.fetch.rateDist::8                   219822     10.22%    100.00% # Number of instructions fetched each cycle (Total)
system.cpu.fetch.rateDist::overflows                0      0.00%    100.00% # Number of instructions fetched each cycle (Total)
system.cpu.fetch.rateDist::min_value                0                       # Number of instructions fetched each cycle (Total)
system.cpu.fetch.rateDist::max_value                8                       # Number of instructions fetched each cycle (Total)
system.cpu.fetch.rateDist::total              2151890                       # Number of instructions fetched each cycle (Total)
system.cpu.idleCycles                           22635                       # Total number of cycles that the CPU has spent unscheduled due to idling
system.cpu.iew.branchMispredicts                 1230                       # Number of branch mispredicts detected at execute
system.cpu.iew.exec_branches                   407819                       # Number of branches executed
system.cpu.iew.exec_nop                             0                       # number of nop insts executed
system.cpu.iew.exec_rate                     1.748571                       # Inst execution rate
system.cpu.iew.exec_refs                      1354913                       # number of memory reference insts executed
system.cpu.iew.exec_stores                     519714                       # Number of stores executed
system.cpu.iew.exec_swp                             0                       # number of swp insts executed
system.cpu.iew.iewBlockCycles                    7632                       # Number of cycles IEW is blocking
system.cpu.iew.iewDispLoadInsts                841973                       # Number of dispatched load instructions
system.cpu.iew.iewDispNonSpecInsts                 30                       # Number of dispatched non-speculative instructions
system.cpu.iew.iewDispSquashedInsts               103                       # Number of squashed instructions skipped by dispatch
system.cpu.iew.iewDispStoreInsts               524230                       # Number of dispatched store instructions
system.cpu.iew.iewDispatchedInsts             3834192                       # Number of instructions dispatched to IQ
system.cpu.iew.iewExecLoadInsts                835199                       # Number of load instructions executed
system.cpu.iew.iewExecSquashedInsts              1337                       # Number of squashed instructions skipped in execute
system.cpu.iew.iewExecutedInsts               3802312                       # Number of executed instructions
system.cpu.iew.iewIQFullEvents                    295                       # Number of times the IQ has become full, causing a stall
system.cpu.iew.iewIdleCycles                        0                       # Number of cycles IEW is idle
system.cpu.iew.iewLSQFullEvents                   105                       # Number of times the LSQ has become full, causing a stall
system.cpu.iew.iewSquashCycles                   1376                       # Number of cycles IEW is squashing
system.cpu.iew.iewUnblockCycles                   415                       # Number of cycles IEW is unblocking
system.cpu.iew.lsq.thread0.blockedLoads             0                       # Number of blocked loads due to partial load-store forwarding
system.cpu.iew.lsq.thread0.cacheBlocked             5                       # Number of times an access to memory failed due to the cache being blocked
system.cpu.iew.lsq.thread0.forwLoads           527947                       # Number of loads that had data forwarded from stores
system.cpu.iew.lsq.thread0.ignoredResponses            9                       # Number of memory responses ignored because the instruction is squashed
system.cpu.iew.lsq.thread0.invAddrLoads             0                       # Number of loads ignored due to an invalid address
system.cpu.iew.lsq.thread0.invAddrSwpfs             0                       # Number of software prefetches ignored due to an invalid address
system.cpu.iew.lsq.thread0.memOrderViolation          219                       # Number of memory ordering violations
system.cpu.iew.lsq.thread0.rescheduledLoads           98                       # Number of loads that were rescheduled
system.cpu.iew.lsq.thread0.squashedLoads        12080                       # Number of loads squashed
system.cpu.iew.lsq.thread0.squashedStores         7077                       # Number of stores squashed
system.cpu.iew.memOrderViolationEvents            219                       # Number of memory order violations
system.cpu.iew.predictedNotTakenIncorrect          676                       # Number of branches that were predicted not taken incorrectly
system.cpu.iew.predictedTakenIncorrect            554                       # Number of branches that were predicted taken incorrectly
system.cpu.iew.wb_consumers                   4590816                       # num instructions consuming a value
system.cpu.iew.wb_count                       3800933                       # cumulative count of insts written-back
system.cpu.iew.wb_fanout                     0.624710                       # average fanout of values written-back
system.cpu.iew.wb_producers                   2867928                       # num instructions producing a value
system.cpu.iew.wb_rate                       1.747937                       # insts written-back per cycle
system.cpu.iew.wb_sent                        3801434                       # cumulative count of insts sent to commit
system.cpu.int_regfile_reads                  4586188                       # number of integer regfile reads
system.cpu.int_regfile_writes                 2766519                       # number of integer regfile writes
system.cpu.ipc                               1.741051                       # IPC: Instructions Per Cycle
system.cpu.ipc_total                         1.741051                       # IPC: Total IPC of All Threads
system.cpu.iq.FU_type_0::No_OpClass                 4      0.00%      0.00% # Type of FU issued
system.cpu.iq.FU_type_0::IntAlu               2347866     61.73%     61.73% # Type of FU issued
system.cpu.iq.FU_type_0::IntMult               100082      2.63%     64.36% # Type of FU issued
system.cpu.iq.FU_type_0::IntDiv                     0      0.00%     64.36% # Type of FU issued
system.cpu.iq.FU_type_0::FloatAdd                   0      0.00%     64.36% # Type of FU issued
system.cpu.iq.FU_type_0::FloatCmp                   0      0.00%     64.36% # Type of FU issued
system.cpu.iq.FU_type_0::FloatCvt                   0      0.00%     64.36% # Type of FU issued
system.cpu.iq.FU_type_0::FloatMult                  0      0.00%     64.36% # Type of FU issued
system.cpu.iq.FU_type_0::FloatMultAcc               0      0.00%     64.36% # Type of FU issued
system.cpu.iq.FU_type_0::FloatDiv                   0      0.00%     64.36% # Type of FU issued
system.cpu.iq.FU_type_0::FloatMisc                  0      0.00%     64.36% # Type of FU issued
system.cpu.iq.FU_type_0::FloatSqrt                  0      0.00%     64.36% # Type of FU issued
system.cpu.iq.FU_type_0::SimdAdd                    0      0.00%     64.36% # Type of FU issued
system.cpu.iq.FU_type_0::SimdAddAcc                 0      0.00%     64.36% # Type of FU issued
system.cpu.iq.FU_type_0::SimdAlu                    0      0.00%     64.36% # Type of FU issued
system.cpu.iq.FU_type_0::SimdCmp                    0      0.00%     64.36% # Type of FU issued
system.cpu.iq.FU_type_0::SimdCvt                    0      0.00%     64.36% # Type of FU issued
system.cpu.iq.FU_type_0::SimdMisc                   0      0.00%     64.36% # Type of FU issued
system.cpu.iq.FU_type_0::SimdMult                   0      0.00%     64.36% # Type of FU issued
system.cpu.iq.FU_type_0::SimdMultAcc                0      0.00%     64.36% # Type of FU issued
system.cpu.iq.FU_type_0::SimdShift                  0      0.00%     64.36% # Type of FU issued
system.cpu.iq.FU_type_0::SimdShiftAcc               0      0.00%     64.36% # Type of FU issued
system.cpu.iq.FU_type_0::SimdDiv                    0      0.00%     64.36% # Type of FU issued
system.cpu.iq.FU_type_0::SimdSqrt                   0      0.00%     64.36% # Type of FU issued
system.cpu.iq.FU_type_0::SimdFloatAdd               0      0.00%     64.36% # Type of FU issued
system.cpu.iq.FU_type_0::SimdFloatAlu               0      0.00%     64.36% # Type of FU issued
system.cpu.iq.FU_type_0::SimdFloatCmp               0      0.00%     64.36% # Type of FU issued
system.cpu.iq.FU_type_0::SimdFloatCvt               0      0.00%     64.36% # Type of FU issued
system.cpu.iq.FU_type_0::SimdFloatDiv               0      0.00%     64.36% # Type of FU issued
system.cpu.iq.FU_type_0::SimdFloatMisc              0      0.00%     64.36% # Type of FU issued
system.cpu.iq.FU_type_0::SimdFloatMult              0      0.00%     64.36% # Type of FU issued
system.cpu.iq.FU_type_0::SimdFloatMultAcc            0      0.00%     64.36% # Type of FU issued
system.cpu.iq.FU_type_0::SimdFloatSqrt              0      0.00%     64.36% # Type of FU issued
system.cpu.iq.FU_type_0::SimdReduceAdd              0      0.00%     64.36% # Type of FU issued
system.cpu.iq.FU_type_0::SimdReduceAlu              0      0.00%     64.36% # Type of FU issued
system.cpu.iq.FU_type_0::SimdReduceCmp              0      0.00%     64.36% # Type of FU issued
system.cpu.iq.FU_type_0::SimdFloatReduceAdd            0      0.00%     64.36% # Type of FU issued
system.cpu.iq.FU_type_0::SimdFloatReduceCmp            0      0.00%     64.36% # Type of FU issued
system.cpu.iq.FU_type_0::SimdAes                    0      0.00%     64.36% # Type of FU issued
system.cpu.iq.FU_type_0::SimdAesMix                 0      0.00%     64.36% # Type of FU issued
system.cpu.iq.FU_type_0::SimdSha1Hash               0      0.00%     64.36% # Type of FU issued
system.cpu.iq.FU_type_0::SimdSha1Hash2              0      0.00%     64.36% # Type of FU issued
system.cpu.iq.FU_type_0::SimdSha256Hash             0      0.00%     64.36% # Type of FU issued
system.cpu.iq.FU_type_0::SimdSha256Hash2            0      0.00%     64.36% # Type of FU issued
system.cpu.iq.FU_type_0::SimdShaSigma2              0      0.00%     64.36% # Type of FU issued
system.cpu.iq.FU_type_0::SimdShaSigma3              0      0.00%     64.36% # Type of FU issued
system.cpu.iq.FU_type_0::SimdPredAlu                0      0.00%     64.36% # Type of FU issued
system.cpu.iq.FU_type_0::MemRead               835805     21.97%     86.33% # Type of FU issued
system.cpu.iq.FU_type_0::MemWrite              519892     13.67%    100.00% # Type of FU issued
system.cpu.iq.FU_type_0::FloatMemRead               0      0.00%    100.00% # Type of FU issued
system.cpu.iq.FU_type_0::FloatMemWrite              0      0.00%    100.00% # Type of FU issued
system.cpu.iq.FU_type_0::IprAccess                  0      0.00%    100.00% # Type of FU issued
system.cpu.iq.FU_type_0::InstPrefetch               0      0.00%    100.00% # Type of FU issued
system.cpu.iq.FU_type_0::total                3803649                       # Type of FU issued
system.cpu.iq.fp_alu_accesses                       0                       # Number of floating point alu accesses
system.cpu.iq.fp_inst_queue_reads                   0                       # Number of floating instruction queue reads
system.cpu.iq.fp_inst_queue_wakeup_accesses            0                       # Number of floating instruction queue wakeup accesses
system.cpu.iq.fp_inst_queue_writes                  0                       # Number of floating instruction queue writes
system.cpu.iq.fu_busy_cnt                           0                       # FU busy when requested
system.cpu.iq.fu_busy_rate                          0                       # FU busy rate (busy events/executed inst)
system.cpu.iq.fu_full::No_OpClass                   0                       # attempts to use FU when none available
system.cpu.iq.fu_full::IntAlu                       0                       # attempts to use FU when none available
system.cpu.iq.fu_full::IntMult                      0                       # attempts to use FU when none available
system.cpu.iq.fu_full::IntDiv                       0                       # attempts to use FU when none available
system.cpu.iq.fu_full::FloatAdd                     0                       # attempts to use FU when none available
system.cpu.iq.fu_full::FloatCmp                     0                       # attempts to use FU when none available
system.cpu.iq.fu_full::FloatCvt                     0                       # attempts to use FU when none available
system.cpu.iq.fu_full::FloatMult                    0                       # attempts to use FU when none available
system.cpu.iq.fu_full::FloatMultAcc                 0                       # attempts to use FU when none available
system.cpu.iq.fu_full::FloatDiv                     0                       # attempts to use FU when none available
system.cpu.iq.fu_full::FloatMisc                    0                       # attempts to use FU when none available
system.cpu.iq.fu_full::FloatSqrt                    0                       # attempts to use FU when none available
system.cpu.iq.fu_full::SimdAdd                      0                       # attempts to use FU when none available
system.cpu.iq.fu_full::SimdAddAcc                   0                       # attempts to use FU when none available
system.cpu.iq.fu_full::SimdAlu                      0                       # attempts to use FU when none available
system.cpu.iq.fu_full::SimdCmp                      0                       # attempts to use FU when none available
system.cpu.iq.fu_full::SimdCvt                      0                       # attempts to use FU when none available
system.cpu.iq.fu_full::SimdMisc                     0                       # attempts to use FU when none available
system.cpu.iq.fu_full::SimdMult                     0                       # attempts to use FU when none available
system.cpu.iq.fu_full::SimdMultAcc                  0                       # attempts to use FU when none available
system.cpu.iq.fu_full::SimdShift                    0                       # attempts to use FU when none available
system.cpu.iq.fu_full::SimdShiftAcc                 0                       # attempts to use FU when none available
system.cpu.iq.fu_full::SimdDiv                      0                       # attempts to use FU when none available
system.cpu.iq.fu_full::SimdSqrt                     0                       # attempts to use FU when none available
system.cpu.iq.fu_full::SimdFloatAdd                 0                       # attempts to use FU when none available
system.cpu.iq.fu_full::SimdFloatAlu                 0                       # attempts to use FU when none available
system.cpu.iq.fu_full::SimdFloatCmp                 0                       # attempts to use FU when none available
system.cpu.iq.fu_full::SimdFloatCvt                 0                       # attempts to use FU when none available
system.cpu.iq.fu_full::SimdFloatDiv                 0                       # attempts to use FU when none available
system.cpu.iq.fu_full::SimdFloatMisc                0                       # attempts to use FU when none available
system.cpu.iq.fu_full::SimdFloatMult                0                       # attempts to use FU when none available
system.cpu.iq.fu_full::SimdFloatMultAcc             0                       # attempts to use FU when none available
system.cpu.iq.fu_full::SimdFloatSqrt                0                       # attempts to use FU when none available
system.cpu.iq.fu_full::SimdReduceAdd                0                       # attempts to use FU when none available
system.cpu.iq.fu_full::SimdReduceAlu                0                       # attempts to use FU when none available
system.cpu.iq.fu_full::SimdReduceCmp                0                       # attempts to use FU when none available
system.cpu.iq.fu_full::SimdFloatReduceAdd            0                       # attempts to use FU when none available
system.cpu.iq.fu_full::SimdFloatReduceCmp            0                       # attempts to use FU when none available
system.cpu.iq.fu_full::SimdAes                      0                       # attempts to use FU when none available
system.cpu.iq.fu_full::SimdAesMix                   0                       # attempts to use FU when none available
system.cpu.iq.fu_full::SimdSha1Hash                 0                       # attempts to use FU when none available
system.cpu.iq.fu_full::SimdSha1Hash2                0                       # attempts to use FU when none available
system.cpu.iq.fu_full::SimdSha256Hash               0                       # attempts to use FU when none available
system.cpu.iq.fu_full::SimdSha256Hash2              0                       # attempts to use FU when none available
system.cpu.iq.fu_full::SimdShaSigma2                0                       # attempts to use FU when none available
system.cpu.iq.fu_full::SimdShaSigma3                0                       # attempts to use FU when none available
system.cpu.iq.fu_full::SimdPredAlu                  0                       # attempts to use FU when none available
system.cpu.iq.fu_full::MemRead                      0                       # attempts to use FU when none available
system.cpu.iq.fu_full::MemWrite                     0                       # attempts to use FU when none available
system.cpu.iq.fu_full::FloatMemRead                 0                       # attempts to use FU when none available
system.cpu.iq.fu_full::FloatMemWrite                0                       # attempts to use FU when none available
system.cpu.iq.fu_full::IprAccess                    0                       # attempts to use FU when none available
system.cpu.iq.fu_full::InstPrefetch                 0                       # attempts to use FU when none available
system.cpu.iq.int_alu_accesses                3803645                       # Number of integer alu accesses
system.cpu.iq.int_inst_queue_reads            9759399                       # Number of integer instruction queue reads
system.cpu.iq.int_inst_queue_wakeup_accesses      3800933                       # Number of integer instruction queue wakeup accesses
system.cpu.iq.int_inst_queue_writes           3881505                       # Number of integer instruction queue writes
system.cpu.iq.iqInstsAdded                    3834148                       # Number of instructions added to the IQ (excludes non-spec)
system.cpu.iq.iqInstsIssued                   3803649                       # Number of instructions issued
system.cpu.iq.iqNonSpecInstsAdded                  44                       # Number of non-speculative instructions added to the IQ
system.cpu.iq.iqSquashedInstsExamined           47107                       # Number of squashed instructions iterated over during squash; mainly for profiling
system.cpu.iq.iqSquashedInstsIssued               211                       # Number of squashed instructions issued
system.cpu.iq.iqSquashedNonSpecRemoved              7                       # Number of squashed non-spec instructions that were removed
system.cpu.iq.iqSquashedOperandsExamined       154468                       # Number of squashed operands that are examined and possibly removed from graph
system.cpu.iq.issued_per_cycle::samples       2151890                       # Number of insts issued each cycle
system.cpu.iq.issued_per_cycle::mean         1.767585                       # Number of insts issued each cycle
system.cpu.iq.issued_per_cycle::stdev        1.286371                       # Number of insts issued each cycle
system.cpu.iq.issued_per_cycle::underflows            0      0.00%      0.00% # Number of insts issued each cycle
system.cpu.iq.issued_per_cycle::0              287128     13.34%     13.34% # Number of insts issued each cycle
system.cpu.iq.issued_per_cycle::1              885194     41.14%     54.48% # Number of insts issued each cycle
system.cpu.iq.issued_per_cycle::2              362274     16.84%     71.31% # Number of insts issued each cycle
system.cpu.iq.issued_per_cycle::3              275269     12.79%     84.11% # Number of insts issued each cycle
system.cpu.iq.issued_per_cycle::4              342025     15.89%    100.00% # Number of insts issued each cycle
system.cpu.iq.issued_per_cycle::overflows            0      0.00%    100.00% # Number of insts issued each cycle
system.cpu.iq.issued_per_cycle::min_value            0                       # Number of insts issued each cycle
system.cpu.iq.issued_per_cycle::max_value            4                       # Number of insts issued each cycle
system.cpu.iq.issued_per_cycle::total         2151890                       # Number of insts issued each cycle
system.cpu.iq.rate                           1.749186                       # Inst issue rate
system.cpu.iq.vec_alu_accesses                      0                       # Number of vector alu accesses
system.cpu.iq.vec_inst_queue_reads                  0                       # Number of vector instruction queue reads
system.cpu.iq.vec_inst_queue_wakeup_accesses            0                       # Number of vector instruction queue wakeup accesses
system.cpu.iq.vec_inst_queue_writes                 0                       # Number of vector instruction queue writes
system.cpu.itb.accesses                             0                       # DTB accesses
system.cpu.itb.align_faults                         0                       # Number of TLB faults due to alignment restrictions
system.cpu.itb.domain_faults                        0                       # Number of TLB faults due to domain restrictions
system.cpu.itb.flush_entries                        0                       # Number of entries that have been flushed from TLB
system.cpu.itb.flush_tlb                            0                       # Number of times complete TLB was flushed
system.cpu.itb.flush_tlb_asid                       0                       # Number of times TLB was flushed by ASID
system.cpu.itb.flush_tlb_mva                        0                       # Number of times TLB was flushed by MVA
system.cpu.itb.flush_tlb_mva_asid                   0                       # Number of times TLB was flushed by MVA & ASID
system.cpu.itb.hits                                 0                       # DTB hits
system.cpu.itb.inst_accesses                        0                       # ITB inst accesses
system.cpu.itb.inst_hits                            0                       # ITB inst hits
system.cpu.itb.inst_misses                          0                       # ITB inst misses
system.cpu.itb.misses                               0                       # DTB misses
system.cpu.itb.perms_faults                         0                       # Number of TLB faults due to permissions restrictions
system.cpu.itb.prefetch_faults                      0                       # Number of TLB faults due to prefetch
system.cpu.itb.read_accesses                        0                       # DTB read accesses
system.cpu.itb.read_hits                            0                       # DTB read hits
system.cpu.itb.read_misses                          0                       # DTB read misses
system.cpu.itb.stage2_mmu.stage2_tlb.accesses            0                       # DTB accesses
system.cpu.itb.stage2_mmu.stage2_tlb.align_faults            0                       # Number of TLB faults due to alignment restrictions
system.cpu.itb.stage2_mmu.stage2_tlb.domain_faults            0                       # Number of TLB faults due to domain restrictions
system.cpu.itb.stage2_mmu.stage2_tlb.flush_entries            0                       # Number of entries that have been flushed from TLB
system.cpu.itb.stage2_mmu.stage2_tlb.flush_tlb            0                       # Number of times complete TLB was flushed
system.cpu.itb.stage2_mmu.stage2_tlb.flush_tlb_asid            0                       # Number of times TLB was flushed by ASID
system.cpu.itb.stage2_mmu.stage2_tlb.flush_tlb_mva            0                       # Number of times TLB was flushed by MVA
system.cpu.itb.stage2_mmu.stage2_tlb.flush_tlb_mva_asid            0                       # Number of times TLB was flushed by MVA & ASID
system.cpu.itb.stage2_mmu.stage2_tlb.hits            0                       # DTB hits
system.cpu.itb.stage2_mmu.stage2_tlb.inst_accesses            0                       # ITB inst accesses
system.cpu.itb.stage2_mmu.stage2_tlb.inst_hits            0                       # ITB inst hits
system.cpu.itb.stage2_mmu.stage2_tlb.inst_misses            0                       # ITB inst misses
system.cpu.itb.stage2_mmu.stage2_tlb.misses            0                       # DTB misses
system.cpu.itb.stage2_mmu.stage2_tlb.perms_faults            0                       # Number of TLB faults due to permissions restrictions
system.cpu.itb.stage2_mmu.stage2_tlb.prefetch_faults            0                       # Number of TLB faults due to prefetch
system.cpu.itb.stage2_mmu.stage2_tlb.read_accesses            0                       # DTB read accesses
system.cpu.itb.stage2_mmu.stage2_tlb.read_hits            0                       # DTB read hits
system.cpu.itb.stage2_mmu.stage2_tlb.read_misses            0                       # DTB read misses
system.cpu.itb.stage2_mmu.stage2_tlb.walker.walkRequestOrigin_Requested::Data            0                       # Table walker requests started/completed, data/inst
system.cpu.itb.stage2_mmu.stage2_tlb.walker.walkRequestOrigin_Requested::Inst            0                       # Table walker requests started/completed, data/inst
system.cpu.itb.stage2_mmu.stage2_tlb.walker.walkRequestOrigin_Requested::total            0                       # Table walker requests started/completed, data/inst
system.cpu.itb.stage2_mmu.stage2_tlb.walker.walkRequestOrigin_Completed::Data            0                       # Table walker requests started/completed, data/inst
system.cpu.itb.stage2_mmu.stage2_tlb.walker.walkRequestOrigin_Completed::Inst            0                       # Table walker requests started/completed, data/inst
system.cpu.itb.stage2_mmu.stage2_tlb.walker.walkRequestOrigin_Completed::total            0                       # Table walker requests started/completed, data/inst
system.cpu.itb.stage2_mmu.stage2_tlb.walker.walkRequestOrigin::total            0                       # Table walker requests started/completed, data/inst
system.cpu.itb.stage2_mmu.stage2_tlb.walker.walks            0                       # Table walker walks requested
system.cpu.itb.stage2_mmu.stage2_tlb.write_accesses            0                       # DTB write accesses
system.cpu.itb.stage2_mmu.stage2_tlb.write_hits            0                       # DTB write hits
system.cpu.itb.stage2_mmu.stage2_tlb.write_misses            0                       # DTB write misses
system.cpu.itb.walker.walkRequestOrigin_Requested::Data            0                       # Table walker requests started/completed, data/inst
system.cpu.itb.walker.walkRequestOrigin_Requested::Inst            0                       # Table walker requests started/completed, data/inst
system.cpu.itb.walker.walkRequestOrigin_Requested::total            0                       # Table walker requests started/completed, data/inst
system.cpu.itb.walker.walkRequestOrigin_Completed::Data            0                       # Table walker requests started/completed, data/inst
system.cpu.itb.walker.walkRequestOrigin_Completed::Inst            0                       # Table walker requests started/completed, data/inst
system.cpu.itb.walker.walkRequestOrigin_Completed::total            0                       # Table walker requests started/completed, data/inst
system.cpu.itb.walker.walkRequestOrigin::total            0                       # Table walker requests started/completed, data/inst
system.cpu.itb.walker.walks                         0                       # Table walker walks requested
system.cpu.itb.write_accesses                       0                       # DTB write accesses
system.cpu.itb.write_hits                           0                       # DTB write hits
system.cpu.itb.write_misses                         0                       # DTB write misses
system.cpu.memDep0.conflictingLoads            674552                       # Number of conflicting loads.
system.cpu.memDep0.conflictingStores           197139                       # Number of conflicting stores.
system.cpu.memDep0.insertedLoads               841973                       # Number of loads inserted to the mem dependence unit.
system.cpu.memDep0.insertedStores              524230                       # Number of stores inserted to the mem dependence unit.
system.cpu.misc_regfile_reads                 3173128                       # number of misc regfile reads
system.cpu.misc_regfile_writes                     57                       # number of misc regfile writes
system.cpu.numCycles                          2174525                       # number of cpu cycles simulated
system.cpu.numWorkItemsCompleted                    0                       # number of work items this cpu completed
system.cpu.numWorkItemsStarted                      0                       # number of work items this cpu started
system.cpu.rename.BlockCycles                  501542                       # Number of cycles rename is blocking
system.cpu.rename.CommittedMaps               3631595                       # Number of HB maps that are committed
system.cpu.rename.IQFullEvents                 965068                       # Number of times rename has blocked due to IQ full
system.cpu.rename.IdleCycles                   249418                       # Number of cycles rename is idle
system.cpu.rename.LQFullEvents                     26                       # Number of times rename has blocked due to LQ full
system.cpu.rename.RenameLookups              17629691                       # Number of register rename lookups that rename has made
system.cpu.rename.RenamedInsts                3840066                       # Number of instructions processed by rename
system.cpu.rename.RenamedOperands             3682929                       # Number of destination operands rename has renamed
system.cpu.rename.RunCycles                    375058                       # Number of cycles rename is running
system.cpu.rename.SQFullEvents                   1738                       # Number of times rename has blocked due to SQ full
system.cpu.rename.SquashCycles                   1376                       # Number of cycles rename is squashing
system.cpu.rename.UnblockCycles               1023001                       # Number of cycles rename is unblocking
system.cpu.rename.UndoneMaps                    51334                       # Number of HB maps that are undone due to squashing
system.cpu.rename.int_rename_lookups          4740899                       # Number of integer rename lookups
system.cpu.rename.serializeStallCycles           1495                       # count of cycles rename stalled for serializing inst
system.cpu.rename.serializingInsts                 33                       # count of serializing insts renamed
system.cpu.rename.skidInsts                   2030383                       # count of insts added to the skid buffer
system.cpu.rename.tempSerializingInsts             33                       # count of temporary serializing insts renamed
system.cpu.rename.vec_rename_lookups               16                       # Number of vector rename lookups
system.cpu.rob.rob_reads                      5738071                       # The number of ROB reads
system.cpu.rob.rob_writes                     7675112                       # The number of ROB writes
system.cpu.timesIdled                             208                       # Number of times that the entire CPU went into an idle state and unscheduled itself
system.cpu.vec_regfile_reads                       16                       # number of vector regfile reads
system.cpu.workload.numSyscalls                     9                       # Number of system calls
system.membus.snoop_filter.hit_multi_requests            0                       # Number of requests hitting in the snoop filter with multiple (>1) holders of the requested data.
system.membus.snoop_filter.hit_multi_snoops            0                       # Number of snoops hitting in the snoop filter with multiple (>1) holders of the requested data.
system.membus.snoop_filter.hit_single_requests            0                       # Number of requests hitting in the snoop filter with a single holder of the requested data.
system.membus.snoop_filter.hit_single_snoops            0                       # Number of snoops hitting in the snoop filter with a single holder of the requested data.
system.membus.snoop_filter.tot_requests           478                       # Total number of requests made to the snoop filter.
system.membus.snoop_filter.tot_snoops               0                       # Total number of snoops made to the snoop filter.
system.tol2bus.snoop_filter.hit_multi_requests           15                       # Number of requests hitting in the snoop filter with multiple (>1) holders of the requested data.
system.tol2bus.snoop_filter.hit_multi_snoops            0                       # Number of snoops hitting in the snoop filter with multiple (>1) holders of the requested data.
system.tol2bus.snoop_filter.hit_single_requests          171                       # Number of requests hitting in the snoop filter with a single holder of the requested data.
system.tol2bus.snoop_filter.hit_single_snoops            0                       # Number of snoops hitting in the snoop filter with a single holder of the requested data.
system.tol2bus.snoop_filter.tot_requests          686                       # Total number of requests made to the snoop filter.
system.tol2bus.snoop_filter.tot_snoops              0                       # Total number of snoops made to the snoop filter.
system.membus.trans_dist::ReadResp                422                       # Transaction distribution
system.membus.trans_dist::ReadExReq                56                       # Transaction distribution
system.membus.trans_dist::ReadExResp               56                       # Transaction distribution
system.membus.trans_dist::ReadSharedReq           422                       # Transaction distribution
system.membus.pkt_count_system.l2.mem_side::system.mem_ctrls.port          956                       # Packet count per connected master and slave (bytes)
system.membus.pkt_count::total                    956                       # Packet count per connected master and slave (bytes)
system.membus.pkt_size_system.l2.mem_side::system.mem_ctrls.port        30592                       # Cumulative packet size per connected master and slave (bytes)
system.membus.pkt_size::total                   30592                       # Cumulative packet size per connected master and slave (bytes)
system.membus.snoops                                0                       # Total snoops (count)
system.membus.snoopTraffic                          0                       # Total snoop traffic (bytes)
system.membus.snoop_fanout::samples               478                       # Request fanout histogram
system.membus.snoop_fanout::mean                    0                       # Request fanout histogram
system.membus.snoop_fanout::stdev                   0                       # Request fanout histogram
system.membus.snoop_fanout::underflows              0      0.00%      0.00% # Request fanout histogram
system.membus.snoop_fanout::0                     478    100.00%    100.00% # Request fanout histogram
system.membus.snoop_fanout::1                       0      0.00%    100.00% # Request fanout histogram
system.membus.snoop_fanout::overflows               0      0.00%    100.00% # Request fanout histogram
system.membus.snoop_fanout::min_value               0                       # Request fanout histogram
system.membus.snoop_fanout::max_value               0                       # Request fanout histogram
system.membus.snoop_fanout::total                 478                       # Request fanout histogram
system.membus.reqLayer0.occupancy              590500                       # Layer occupancy (ticks)
system.membus.reqLayer0.utilization               0.1                       # Layer utilization (%)
system.membus.respLayer1.occupancy            2524000                       # Layer occupancy (ticks)
system.membus.respLayer1.utilization              0.2                       # Layer utilization (%)
system.membus.power_state.pwrStateResidencyTicks::UNDEFINED   1087262000                       # Cumulative time (in ticks) in various power states
system.tol2bus.trans_dist::ReadResp               491                       # Transaction distribution
system.tol2bus.trans_dist::WritebackDirty            1                       # Transaction distribution
system.tol2bus.trans_dist::WritebackClean          135                       # Transaction distribution
system.tol2bus.trans_dist::CleanEvict               2                       # Transaction distribution
system.tol2bus.trans_dist::ReadExReq               56                       # Transaction distribution
system.tol2bus.trans_dist::ReadExResp              56                       # Transaction distribution
system.tol2bus.trans_dist::ReadCleanReq           364                       # Transaction distribution
system.tol2bus.trans_dist::ReadSharedReq          128                       # Transaction distribution
system.tol2bus.pkt_count_system.cpu.icache.mem_side::system.l2.cpu_side          862                       # Packet count per connected master and slave (bytes)
system.tol2bus.pkt_count_system.cpu.dcache.mem_side::system.l2.cpu_side          371                       # Packet count per connected master and slave (bytes)
system.tol2bus.pkt_count::total                  1233                       # Packet count per connected master and slave (bytes)
system.tol2bus.pkt_size_system.cpu.icache.mem_side::system.l2.cpu_side        31872                       # Cumulative packet size per connected master and slave (bytes)
system.tol2bus.pkt_size_system.cpu.dcache.mem_side::system.l2.cpu_side        11840                       # Cumulative packet size per connected master and slave (bytes)
system.tol2bus.pkt_size::total                  43712                       # Cumulative packet size per connected master and slave (bytes)
system.tol2bus.snoops                               0                       # Total snoops (count)
system.tol2bus.snoopTraffic                         0                       # Total snoop traffic (bytes)
system.tol2bus.snoop_fanout::samples              548                       # Request fanout histogram
system.tol2bus.snoop_fanout::mean            0.087591                       # Request fanout histogram
system.tol2bus.snoop_fanout::stdev           0.282958                       # Request fanout histogram
system.tol2bus.snoop_fanout::underflows             0      0.00%      0.00% # Request fanout histogram
system.tol2bus.snoop_fanout::0                    500     91.24%     91.24% # Request fanout histogram
system.tol2bus.snoop_fanout::1                     48      8.76%    100.00% # Request fanout histogram
system.tol2bus.snoop_fanout::2                      0      0.00%    100.00% # Request fanout histogram
system.tol2bus.snoop_fanout::overflows              0      0.00%    100.00% # Request fanout histogram
system.tol2bus.snoop_fanout::min_value              0                       # Request fanout histogram
system.tol2bus.snoop_fanout::max_value              1                       # Request fanout histogram
system.tol2bus.snoop_fanout::total                548                       # Request fanout histogram
system.tol2bus.reqLayer0.occupancy             479000                       # Layer occupancy (ticks)
system.tol2bus.reqLayer0.utilization              0.0                       # Layer utilization (%)
system.tol2bus.respLayer1.occupancy            280990                       # Layer occupancy (ticks)
system.tol2bus.respLayer1.utilization             0.0                       # Layer utilization (%)
system.tol2bus.respLayer0.occupancy            544999                       # Layer occupancy (ticks)
system.tol2bus.respLayer0.utilization             0.1                       # Layer utilization (%)
system.tol2bus.power_state.pwrStateResidencyTicks::UNDEFINED   1087262000                       # Cumulative time (in ticks) in various power states
system.voltage_domain.voltage                       1                       # Voltage in Volts
system.clk_domain.clock                          1000                       # Clock period in ticks
system.l2.demand_hits::.cpu.inst                   39                       # number of demand (read+write) hits
system.l2.demand_hits::.cpu.data                   19                       # number of demand (read+write) hits
system.l2.demand_hits::total                       58                       # number of demand (read+write) hits
system.l2.overall_hits::.cpu.inst                  39                       # number of overall hits
system.l2.overall_hits::.cpu.data                  19                       # number of overall hits
system.l2.overall_hits::total                      58                       # number of overall hits
system.l2.demand_misses::.cpu.inst                325                       # number of demand (read+write) misses
system.l2.demand_misses::.cpu.data                165                       # number of demand (read+write) misses
system.l2.demand_misses::total                    490                       # number of demand (read+write) misses
system.l2.overall_misses::.cpu.inst               325                       # number of overall misses
system.l2.overall_misses::.cpu.data               165                       # number of overall misses
system.l2.overall_misses::total                   490                       # number of overall misses
system.l2.demand_miss_latency::.cpu.inst     25081000                       # number of demand (read+write) miss cycles
system.l2.demand_miss_latency::.cpu.data     13794000                       # number of demand (read+write) miss cycles
system.l2.demand_miss_latency::total         38875000                       # number of demand (read+write) miss cycles
system.l2.overall_miss_latency::.cpu.inst     25081000                       # number of overall miss cycles
system.l2.overall_miss_latency::.cpu.data     13794000                       # number of overall miss cycles
system.l2.overall_miss_latency::total        38875000                       # number of overall miss cycles
system.l2.demand_accesses::.cpu.inst              364                       # number of demand (read+write) accesses
system.l2.demand_accesses::.cpu.data              184                       # number of demand (read+write) accesses
system.l2.demand_accesses::total                  548                       # number of demand (read+write) accesses
system.l2.overall_accesses::.cpu.inst             364                       # number of overall (read+write) accesses
system.l2.overall_accesses::.cpu.data             184                       # number of overall (read+write) accesses
system.l2.overall_accesses::total                 548                       # number of overall (read+write) accesses
system.l2.demand_miss_rate::.cpu.inst        0.892857                       # miss rate for demand accesses
system.l2.demand_miss_rate::.cpu.data        0.896739                       # miss rate for demand accesses
system.l2.demand_miss_rate::total            0.894161                       # miss rate for demand accesses
system.l2.overall_miss_rate::.cpu.inst       0.892857                       # miss rate for overall accesses
system.l2.overall_miss_rate::.cpu.data       0.896739                       # miss rate for overall accesses
system.l2.overall_miss_rate::total           0.894161                       # miss rate for overall accesses
system.l2.demand_avg_miss_latency::.cpu.inst 77172.307692                       # average overall miss latency
system.l2.demand_avg_miss_latency::.cpu.data        83600                       # average overall miss latency
system.l2.demand_avg_miss_latency::total 79336.734694                       # average overall miss latency
system.l2.overall_avg_miss_latency::.cpu.inst 77172.307692                       # average overall miss latency
[...]
system.cpu.icache.ReadReq_miss_rate::.cpu.inst     0.001010                       # miss rate for ReadReq accesses
system.cpu.icache.ReadReq_miss_rate::total     0.001010                       # miss rate for ReadReq accesses
system.cpu.icache.ReadReq_avg_miss_latency::.cpu.inst 68148.187633                       # average ReadReq miss latency
system.cpu.icache.ReadReq_avg_miss_latency::total 68148.187633                       # average ReadReq miss latency
system.cpu.icache.ReadReq_mshr_hits::.cpu.inst          105                       # number of ReadReq MSHR hits
system.cpu.icache.ReadReq_mshr_hits::total          105                       # number of ReadReq MSHR hits
system.cpu.icache.ReadReq_mshr_misses::.cpu.inst          364                       # number of ReadReq MSHR misses
system.cpu.icache.ReadReq_mshr_misses::total          364                       # number of ReadReq MSHR misses
system.cpu.icache.ReadReq_mshr_miss_latency::.cpu.inst     26062000                       # number of ReadReq MSHR miss cycles
system.cpu.icache.ReadReq_mshr_miss_latency::total     26062000                       # number of ReadReq MSHR miss cycles
system.cpu.icache.ReadReq_mshr_miss_rate::.cpu.inst     0.000784                       # mshr miss rate for ReadReq accesses
system.cpu.icache.ReadReq_mshr_miss_rate::total     0.000784                       # mshr miss rate for ReadReq accesses
system.cpu.icache.ReadReq_avg_mshr_miss_latency::.cpu.inst 71598.901099                       # average ReadReq mshr miss latency
system.cpu.icache.ReadReq_avg_mshr_miss_latency::total 71598.901099                       # average ReadReq mshr miss latency
system.cpu.icache.power_state.pwrStateResidencyTicks::UNDEFINED   1087262000                       # Cumulative time (in ticks) in various power states
system.cpu.icache.tags.tagsinuse           215.580923                       # Cycle average of tags in use
system.cpu.icache.tags.total_refs              464299                       # Total number of references to valid blocks.
system.cpu.icache.tags.sampled_refs               363                       # Sample count of references to valid blocks.
system.cpu.icache.tags.avg_refs           1279.060606                       # Average number of references to valid blocks.
system.cpu.icache.tags.warmup_cycle             87500                       # Cycle when the warmup percentage was hit.
system.cpu.icache.tags.occ_blocks::.cpu.inst   215.580923                       # Average occupied blocks per requestor
system.cpu.icache.tags.occ_percent::.cpu.inst     0.842113                       # Average percentage of cache occupancy
system.cpu.icache.tags.occ_percent::total     0.842113                       # Average percentage of cache occupancy
system.cpu.icache.tags.occ_task_id_blocks::1024          228                       # Occupied blocks per task id
system.cpu.icache.tags.age_task_id_blocks_1024::0           49                       # Occupied blocks per task id
system.cpu.icache.tags.age_task_id_blocks_1024::3          179                       # Occupied blocks per task id
system.cpu.icache.tags.occ_task_id_percent::1024     0.890625                       # Percentage of cache occupancy per task id
system.cpu.icache.tags.tag_accesses            929173                       # Number of tag accesses
system.cpu.icache.tags.data_accesses           929173                       # Number of data accesses
system.cpu.icache.tags.power_state.pwrStateResidencyTicks::UNDEFINED   1087262000                       # Cumulative time (in ticks) in various power states
system.cpu.dtb.walker.power_state.pwrStateResidencyTicks::UNDEFINED   1087262000                       # Cumulative time (in ticks) in various power states
system.cpu.dtb.stage2_mmu.stage2_tlb.walker.power_state.pwrStateResidencyTicks::UNDEFINED   1087262000                       # Cumulative time (in ticks) in various power states
system.cpu.itb.walker.power_state.pwrStateResidencyTicks::UNDEFINED   1087262000                       # Cumulative time (in ticks) in various power states
system.cpu.itb.stage2_mmu.stage2_tlb.walker.power_state.pwrStateResidencyTicks::UNDEFINED   1087262000                       # Cumulative time (in ticks) in various power states
system.cpu.dcache.demand_hits::.cpu.data       823083                       # number of demand (read+write) hits
system.cpu.dcache.demand_hits::total           823083                       # number of demand (read+write) hits
system.cpu.dcache.overall_hits::.cpu.data       823083                       # number of overall hits
system.cpu.dcache.overall_hits::total          823083                       # number of overall hits
system.cpu.dcache.demand_misses::.cpu.data          679                       # number of demand (read+write) misses
system.cpu.dcache.demand_misses::total            679                       # number of demand (read+write) misses
system.cpu.dcache.overall_misses::.cpu.data          679                       # number of overall misses
system.cpu.dcache.overall_misses::total           679                       # number of overall misses
system.cpu.dcache.demand_miss_latency::.cpu.data     49606498                       # number of demand (read+write) miss cycles
system.cpu.dcache.demand_miss_latency::total     49606498                       # number of demand (read+write) miss cycles
system.cpu.dcache.overall_miss_latency::.cpu.data     49606498                       # number of overall miss cycles
system.cpu.dcache.overall_miss_latency::total     49606498                       # number of overall miss cycles
system.cpu.dcache.demand_accesses::.cpu.data       823762                       # number of demand (read+write) accesses
system.cpu.dcache.demand_accesses::total       823762                       # number of demand (read+write) accesses
system.cpu.dcache.overall_accesses::.cpu.data       823762                       # number of overall (read+write) accesses
system.cpu.dcache.overall_accesses::total       823762                       # number of overall (read+write) accesses
system.cpu.dcache.demand_miss_rate::.cpu.data     0.000824                       # miss rate for demand accesses
system.cpu.dcache.demand_miss_rate::total     0.000824                       # miss rate for demand accesses
system.cpu.dcache.overall_miss_rate::.cpu.data     0.000824                       # miss rate for overall accesses
system.cpu.dcache.overall_miss_rate::total     0.000824                       # miss rate for overall accesses
system.cpu.dcache.demand_avg_miss_latency::.cpu.data 73058.170839                       # average overall miss latency
system.cpu.dcache.demand_avg_miss_latency::total 73058.170839                       # average overall miss latency
system.cpu.dcache.overall_avg_miss_latency::.cpu.data 73058.170839                       # average overall miss latency
system.cpu.dcache.overall_avg_miss_latency::total 73058.170839                       # average overall miss latency
system.cpu.dcache.blocked_cycles::no_mshrs          407                       # number of cycles access was blocked
system.cpu.dcache.blocked_cycles::no_targets            0                       # number of cycles access was blocked
system.cpu.dcache.blocked::no_mshrs                11                       # number of cycles access was blocked
system.cpu.dcache.blocked::no_targets               0                       # number of cycles access was blocked
system.cpu.dcache.avg_blocked_cycles::no_mshrs           37                       # average number of cycles each access was blocked
system.cpu.dcache.avg_blocked_cycles::no_targets          nan                       # average number of cycles each access was blocked
system.cpu.dcache.writebacks::.writebacks            1                       # number of writebacks
system.cpu.dcache.writebacks::total                 1                       # number of writebacks
system.cpu.dcache.demand_mshr_hits::.cpu.data          495                       # number of demand (read+write) MSHR hits
system.cpu.dcache.demand_mshr_hits::total          495                       # number of demand (read+write) MSHR hits
system.cpu.dcache.overall_mshr_hits::.cpu.data          495                       # number of overall MSHR hits
system.cpu.dcache.overall_mshr_hits::total          495                       # number of overall MSHR hits
system.cpu.dcache.demand_mshr_misses::.cpu.data          184                       # number of demand (read+write) MSHR misses
system.cpu.dcache.demand_mshr_misses::total          184                       # number of demand (read+write) MSHR misses
system.cpu.dcache.overall_mshr_misses::.cpu.data          184                       # number of overall MSHR misses
system.cpu.dcache.overall_mshr_misses::total          184                       # number of overall MSHR misses
system.cpu.dcache.demand_mshr_miss_latency::.cpu.data     14300498                       # number of demand (read+write) MSHR miss cycles
system.cpu.dcache.demand_mshr_miss_latency::total     14300498                       # number of demand (read+write) MSHR miss cycles
system.cpu.dcache.overall_mshr_miss_latency::.cpu.data     14300498                       # number of overall MSHR miss cycles
system.cpu.dcache.overall_mshr_miss_latency::total     14300498                       # number of overall MSHR miss cycles
system.cpu.dcache.demand_mshr_miss_rate::.cpu.data     0.000223                       # mshr miss rate for demand accesses
system.cpu.dcache.demand_mshr_miss_rate::total     0.000223                       # mshr miss rate for demand accesses
system.cpu.dcache.overall_mshr_miss_rate::.cpu.data     0.000223                       # mshr miss rate for overall accesses
system.cpu.dcache.overall_mshr_miss_rate::total     0.000223                       # mshr miss rate for overall accesses
system.cpu.dcache.demand_avg_mshr_miss_latency::.cpu.data 77720.097826                       # average overall mshr miss latency
system.cpu.dcache.demand_avg_mshr_miss_latency::total 77720.097826                       # average overall mshr miss latency
system.cpu.dcache.overall_avg_mshr_miss_latency::.cpu.data 77720.097826                       # average overall mshr miss latency
system.cpu.dcache.overall_avg_mshr_miss_latency::total 77720.097826                       # average overall mshr miss latency
system.cpu.dcache.replacements                      3                       # number of replacements
system.cpu.dcache.ReadReq_hits::.cpu.data       306455                       # number of ReadReq hits
system.cpu.dcache.ReadReq_hits::total          306455                       # number of ReadReq hits
system.cpu.dcache.ReadReq_misses::.cpu.data          215                       # number of ReadReq misses
system.cpu.dcache.ReadReq_misses::total           215                       # number of ReadReq misses
system.cpu.dcache.ReadReq_miss_latency::.cpu.data     14355000                       # number of ReadReq miss cycles
system.cpu.dcache.ReadReq_miss_latency::total     14355000                       # number of ReadReq miss cycles
system.cpu.dcache.ReadReq_accesses::.cpu.data       306670                       # number of ReadReq accesses(hits+misses)
system.cpu.dcache.ReadReq_accesses::total       306670                       # number of ReadReq accesses(hits+misses)
system.cpu.dcache.ReadReq_miss_rate::.cpu.data     0.000701                       # miss rate for ReadReq accesses
system.cpu.dcache.ReadReq_miss_rate::total     0.000701                       # miss rate for ReadReq accesses
system.cpu.dcache.ReadReq_avg_miss_latency::.cpu.data 66767.441860                       # average ReadReq miss latency
system.cpu.dcache.ReadReq_avg_miss_latency::total 66767.441860                       # average ReadReq miss latency
system.cpu.dcache.ReadReq_mshr_hits::.cpu.data           87                       # number of ReadReq MSHR hits
system.cpu.dcache.ReadReq_mshr_hits::total           87                       # number of ReadReq MSHR hits
system.cpu.dcache.ReadReq_mshr_misses::.cpu.data          128                       # number of ReadReq MSHR misses
system.cpu.dcache.ReadReq_mshr_misses::total          128                       # number of ReadReq MSHR misses
system.cpu.dcache.ReadReq_mshr_miss_latency::.cpu.data      9260000                       # number of ReadReq MSHR miss cycles
system.cpu.dcache.ReadReq_mshr_miss_latency::total      9260000                       # number of ReadReq MSHR miss cycles
system.cpu.dcache.ReadReq_mshr_miss_rate::.cpu.data     0.000417                       # mshr miss rate for ReadReq accesses
system.cpu.dcache.ReadReq_mshr_miss_rate::total     0.000417                       # mshr miss rate for ReadReq accesses
system.cpu.dcache.ReadReq_avg_mshr_miss_latency::.cpu.data 72343.750000                       # average ReadReq mshr miss latency
system.cpu.dcache.ReadReq_avg_mshr_miss_latency::total 72343.750000                       # average ReadReq mshr miss latency
system.cpu.dcache.WriteReq_hits::.cpu.data       516628                       # number of WriteReq hits
system.cpu.dcache.WriteReq_hits::total         516628                       # number of WriteReq hits
system.cpu.dcache.WriteReq_misses::.cpu.data          464                       # number of WriteReq misses
system.cpu.dcache.WriteReq_misses::total          464                       # number of WriteReq misses
system.cpu.dcache.WriteReq_miss_latency::.cpu.data     35251498                       # number of WriteReq miss cycles
system.cpu.dcache.WriteReq_miss_latency::total     35251498                       # number of WriteReq miss cycles
system.cpu.dcache.WriteReq_accesses::.cpu.data       517092                       # number of WriteReq accesses(hits+misses)
system.cpu.dcache.WriteReq_accesses::total       517092                       # number of WriteReq accesses(hits+misses)
system.cpu.dcache.WriteReq_miss_rate::.cpu.data     0.000897                       # miss rate for WriteReq accesses
system.cpu.dcache.WriteReq_miss_rate::total     0.000897                       # miss rate for WriteReq accesses
system.cpu.dcache.WriteReq_avg_miss_latency::.cpu.data 75973.056034                       # average WriteReq miss latency
system.cpu.dcache.WriteReq_avg_miss_latency::total 75973.056034                       # average WriteReq miss latency
system.cpu.dcache.WriteReq_mshr_hits::.cpu.data          408                       # number of WriteReq MSHR hits
system.cpu.dcache.WriteReq_mshr_hits::total          408                       # number of WriteReq MSHR hits
system.cpu.dcache.WriteReq_mshr_misses::.cpu.data           56                       # number of WriteReq MSHR misses
system.cpu.dcache.WriteReq_mshr_misses::total           56                       # number of WriteReq MSHR misses
system.cpu.dcache.WriteReq_mshr_miss_latency::.cpu.data      5040498                       # number of WriteReq MSHR miss cycles
system.cpu.dcache.WriteReq_mshr_miss_latency::total      5040498                       # number of WriteReq MSHR miss cycles
system.cpu.dcache.WriteReq_mshr_miss_rate::.cpu.data     0.000108                       # mshr miss rate for WriteReq accesses
system.cpu.dcache.WriteReq_mshr_miss_rate::total     0.000108                       # mshr miss rate for WriteReq accesses
system.cpu.dcache.WriteReq_avg_mshr_miss_latency::.cpu.data 90008.892857                       # average WriteReq mshr miss latency
system.cpu.dcache.WriteReq_avg_mshr_miss_latency::total 90008.892857                       # average WriteReq mshr miss latency
system.cpu.dcache.LoadLockedReq_hits::.cpu.data           13                       # number of LoadLockedReq hits
system.cpu.dcache.LoadLockedReq_hits::total           13                       # number of LoadLockedReq hits
system.cpu.dcache.LoadLockedReq_misses::.cpu.data            1                       # number of LoadLockedReq misses
system.cpu.dcache.LoadLockedReq_misses::total            1                       # number of LoadLockedReq misses
system.cpu.dcache.LoadLockedReq_miss_latency::.cpu.data        71000                       # number of LoadLockedReq miss cycles
system.cpu.dcache.LoadLockedReq_miss_latency::total        71000                       # number of LoadLockedReq miss cycles
system.cpu.dcache.LoadLockedReq_accesses::.cpu.data           14                       # number of LoadLockedReq accesses(hits+misses)
system.cpu.dcache.LoadLockedReq_accesses::total           14                       # number of LoadLockedReq accesses(hits+misses)
system.cpu.dcache.LoadLockedReq_miss_rate::.cpu.data     0.071429                       # miss rate for LoadLockedReq accesses
system.cpu.dcache.LoadLockedReq_miss_rate::total     0.071429                       # miss rate for LoadLockedReq accesses
system.cpu.dcache.LoadLockedReq_avg_miss_latency::.cpu.data        71000                       # average LoadLockedReq miss latency
system.cpu.dcache.LoadLockedReq_avg_miss_latency::total        71000                       # average LoadLockedReq miss latency
system.cpu.dcache.LoadLockedReq_mshr_hits::.cpu.data            1                       # number of LoadLockedReq MSHR hits
system.cpu.dcache.LoadLockedReq_mshr_hits::total            1                       # number of LoadLockedReq MSHR hits
system.cpu.dcache.StoreCondReq_hits::.cpu.data           14                       # number of StoreCondReq hits
system.cpu.dcache.StoreCondReq_hits::total           14                       # number of StoreCondReq hits
system.cpu.dcache.StoreCondReq_accesses::.cpu.data           14                       # number of StoreCondReq accesses(hits+misses)
system.cpu.dcache.StoreCondReq_accesses::total           14                       # number of StoreCondReq accesses(hits+misses)
system.cpu.dcache.power_state.pwrStateResidencyTicks::UNDEFINED   1087262000                       # Cumulative time (in ticks) in various power states
system.cpu.dcache.tags.tagsinuse           161.874440                       # Cycle average of tags in use
system.cpu.dcache.tags.total_refs              823294                       # Total number of references to valid blocks.
system.cpu.dcache.tags.sampled_refs               184                       # Sample count of references to valid blocks.
system.cpu.dcache.tags.avg_refs           4474.423913                       # Average number of references to valid blocks.
system.cpu.dcache.tags.warmup_cycle            161000                       # Cycle when the warmup percentage was hit.
system.cpu.dcache.tags.occ_blocks::.cpu.data   161.874440                       # Average occupied blocks per requestor
system.cpu.dcache.tags.occ_percent::.cpu.data     0.158081                       # Average percentage of cache occupancy
system.cpu.dcache.tags.occ_percent::total     0.158081                       # Average percentage of cache occupancy
system.cpu.dcache.tags.occ_task_id_blocks::1024          181                       # Occupied blocks per task id
system.cpu.dcache.tags.age_task_id_blocks_1024::0           18                       # Occupied blocks per task id
system.cpu.dcache.tags.age_task_id_blocks_1024::3          163                       # Occupied blocks per task id
system.cpu.dcache.tags.occ_task_id_percent::1024     0.176758                       # Percentage of cache occupancy per task id
system.cpu.dcache.tags.tag_accesses           1647764                       # Number of tag accesses
system.cpu.dcache.tags.data_accesses          1647764                       # Number of data accesses
system.cpu.dcache.tags.power_state.pwrStateResidencyTicks::UNDEFINED   1087262000                       # Cumulative time (in ticks) in various power states
system.cpu.power_state.pwrStateResidencyTicks::ON   1087262000                       # Cumulative time (in ticks) in various power states

---------- End Simulation Statistics   ----------
