
---------- Begin Simulation Statistics ----------
final_tick                                 1455066500                       # Number of ticks from beginning of simulation (restored from checkpoints and never reset)
host_inst_rate                                  77070                       # Simulator instruction rate (inst/s)
host_mem_usage                                 859000                       # Number of bytes of host memory used
host_op_rate                                    88962                       # Simulator op (including micro ops) rate (op/s)
host_seconds                                    36.76                       # Real time elapsed on the host
host_tick_rate                               39581426                       # Simulator tick rate (ticks/s)
sim_freq                                 1000000000000                       # Frequency of simulated ticks
sim_insts                                     2833100                       # Number of instructions simulated
sim_ops                                       3270344                       # Number of ops (including micro ops) simulated
sim_seconds                                  0.001455                       # Number of seconds simulated
sim_ticks                                  1455066500                       # Number of ticks simulated
system.cpu.branchPred.BTBCorrect                    0                       # Number of correct BTB predictions (this stat may not work properly.
system.cpu.branchPred.BTBHitPct             98.715332                       # BTB Hit Percentage
system.cpu.branchPred.BTBHits                  310976                       # Number of BTB hits
system.cpu.branchPred.BTBLookups               315023                       # Number of BTB lookups
system.cpu.branchPred.RASInCorrect                  3                       # Number of incorrect RAS predictions.
system.cpu.branchPred.condIncorrect              7501                       # Number of conditional branches incorrect
system.cpu.branchPred.condPredicted            539156                       # Number of conditional branches predicted
system.cpu.branchPred.indirectHits               1269                       # Number of indirect target hits.
system.cpu.branchPred.indirectLookups            2042                       # Number of indirect predictor lookups.
system.cpu.branchPred.indirectMisses              773                       # Number of indirect misses.
system.cpu.branchPred.lookups                  666688                       # Number of BP lookups
system.cpu.branchPred.loop_predictor.loopPredictorCorrect            0                       # Number of times the loop predictor is the provider and the prediction is correct
system.cpu.branchPred.loop_predictor.loopPredictorWrong            0                       # Number of times the loop predictor is the provider and the prediction is wrong
system.cpu.branchPred.statistical_corrector.scPredictorCorrect          754                       # Number of time the SC predictor is the provider and the prediction is correct
system.cpu.branchPred.statistical_corrector.scPredictorWrong          558                       # Number of time the SC predictor is the provider and the prediction is wrong
system.cpu.branchPred.tage.bimodalAltMatchProviderCorrect          379                       # Number of times TAGE Alt Match is the bimodal and it is the provider and the prediction is correct
system.cpu.branchPred.tage.bimodalAltMatchProviderWrong           83                       # Number of times TAGE Alt Match is the bimodal and it is the provider and the prediction is wrong
system.cpu.branchPred.tage.tageAltMatchProvider::0        48016                       # TAGE provider for alt match
system.cpu.branchPred.tage.tageAltMatchProvider::1            0                       # TAGE provider for alt match
system.cpu.branchPred.tage.tageAltMatchProvider::2         9862                       # TAGE provider for alt match
system.cpu.branchPred.tage.tageAltMatchProvider::3            0                       # TAGE provider for alt match
system.cpu.branchPred.tage.tageAltMatchProvider::4        11076                       # TAGE provider for alt match
system.cpu.branchPred.tage.tageAltMatchProvider::5            0                       # TAGE provider for alt match
system.cpu.branchPred.tage.tageAltMatchProvider::6         1814                       # TAGE provider for alt match
system.cpu.branchPred.tage.tageAltMatchProvider::7        10800                       # TAGE provider for alt match
system.cpu.branchPred.tage.tageAltMatchProvider::8         1535                       # TAGE provider for alt match
system.cpu.branchPred.tage.tageAltMatchProvider::9         5632                       # TAGE provider for alt match
system.cpu.branchPred.tage.tageAltMatchProvider::10         2307                       # TAGE provider for alt match
system.cpu.branchPred.tage.tageAltMatchProvider::11         6936                       # TAGE provider for alt match
system.cpu.branchPred.tage.tageAltMatchProvider::12         3432                       # TAGE provider for alt match
system.cpu.branchPred.tage.tageAltMatchProvider::13         3004                       # TAGE provider for alt match
system.cpu.branchPred.tage.tageAltMatchProvider::14         1079                       # TAGE provider for alt match
system.cpu.branchPred.tage.tageAltMatchProvider::15         1236                       # TAGE provider for alt match
system.cpu.branchPred.tage.tageAltMatchProvider::16         4069                       # TAGE provider for alt match
system.cpu.branchPred.tage.tageAltMatchProvider::17         1015                       # TAGE provider for alt match
system.cpu.branchPred.tage.tageAltMatchProvider::18         3021                       # TAGE provider for alt match
system.cpu.branchPred.tage.tageAltMatchProvider::19         1104                       # TAGE provider for alt match
system.cpu.branchPred.tage.tageAltMatchProvider::20         5192                       # TAGE provider for alt match
system.cpu.branchPred.tage.tageAltMatchProvider::21            0                       # TAGE provider for alt match
system.cpu.branchPred.tage.tageAltMatchProvider::22         1369                       # TAGE provider for alt match
system.cpu.branchPred.tage.tageAltMatchProvider::23            0                       # TAGE provider for alt match
system.cpu.branchPred.tage.tageAltMatchProvider::24         2613                       # TAGE provider for alt match
system.cpu.branchPred.tage.tageAltMatchProvider::25            0                       # TAGE provider for alt match
system.cpu.branchPred.tage.tageAltMatchProvider::26         8880                       # TAGE provider for alt match
system.cpu.branchPred.tage.tageAltMatchProvider::27            0                       # TAGE provider for alt match
system.cpu.branchPred.tage.tageAltMatchProvider::28         4407                       # TAGE provider for alt match
system.cpu.branchPred.tage.tageAltMatchProvider::29            0                       # TAGE provider for alt match
system.cpu.branchPred.tage.tageAltMatchProvider::30            0                       # TAGE provider for alt match
system.cpu.branchPred.tage.tageAltMatchProviderCorrect         2325                       # Number of times TAGE Alt Match is the provider and the prediction is correct
system.cpu.branchPred.tage.tageAltMatchProviderWouldHaveHit          286                       # Number of times TAGE Longest Match is the provider, the prediction is wrong and Alt Match prediction was correct
system.cpu.branchPred.tage.tageAltMatchProviderWrong          841                       # Number of times TAGE Alt Match is the provider and the prediction is wrong
system.cpu.branchPred.tage.tageBimodalProviderCorrect       305256                       # Number of times there are no hits on the TAGE tables and the bimodal prediction is correct
system.cpu.branchPred.tage.tageBimodalProviderWrong         1219                       # Number of times there are no hits on the TAGE tables and the bimodal prediction is wrong
system.cpu.branchPred.tage.tageLongestMatchProvider::0            0                       # TAGE provider for longest match
system.cpu.branchPred.tage.tageLongestMatchProvider::1            0                       # TAGE provider for longest match
system.cpu.branchPred.tage.tageLongestMatchProvider::2        28768                       # TAGE provider for longest match
system.cpu.branchPred.tage.tageLongestMatchProvider::3            0                       # TAGE provider for longest match
system.cpu.branchPred.tage.tageLongestMatchProvider::4          890                       # TAGE provider for longest match
system.cpu.branchPred.tage.tageLongestMatchProvider::5            0                       # TAGE provider for longest match
system.cpu.branchPred.tage.tageLongestMatchProvider::6        21129                       # TAGE provider for longest match
system.cpu.branchPred.tage.tageLongestMatchProvider::7         3310                       # TAGE provider for longest match
system.cpu.branchPred.tage.tageLongestMatchProvider::8        14787                       # TAGE provider for longest match
system.cpu.branchPred.tage.tageLongestMatchProvider::9         1982                       # TAGE provider for longest match
system.cpu.branchPred.tage.tageLongestMatchProvider::10        11319                       # TAGE provider for longest match
system.cpu.branchPred.tage.tageLongestMatchProvider::11         1760                       # TAGE provider for longest match
system.cpu.branchPred.tage.tageLongestMatchProvider::12         5959                       # TAGE provider for longest match
system.cpu.branchPred.tage.tageLongestMatchProvider::13         3944                       # TAGE provider for longest match
system.cpu.branchPred.tage.tageLongestMatchProvider::14         6559                       # TAGE provider for longest match
system.cpu.branchPred.tage.tageLongestMatchProvider::15         1441                       # TAGE provider for longest match
system.cpu.branchPred.tage.tageLongestMatchProvider::16         2992                       # TAGE provider for longest match
system.cpu.branchPred.tage.tageLongestMatchProvider::17         1641                       # TAGE provider for longest match
system.cpu.branchPred.tage.tageLongestMatchProvider::18         1717                       # TAGE provider for longest match
system.cpu.branchPred.tage.tageLongestMatchProvider::19         1776                       # TAGE provider for longest match
system.cpu.branchPred.tage.tageLongestMatchProvider::20         4501                       # TAGE provider for longest match
system.cpu.branchPred.tage.tageLongestMatchProvider::21            0                       # TAGE provider for longest match
system.cpu.branchPred.tage.tageLongestMatchProvider::22         1855                       # TAGE provider for longest match
system.cpu.branchPred.tage.tageLongestMatchProvider::23            0                       # TAGE provider for longest match
system.cpu.branchPred.tage.tageLongestMatchProvider::24         2716                       # TAGE provider for longest match
system.cpu.branchPred.tage.tageLongestMatchProvider::25            0                       # TAGE provider for longest match
system.cpu.branchPred.tage.tageLongestMatchProvider::26         5262                       # TAGE provider for longest match
system.cpu.branchPred.tage.tageLongestMatchProvider::27            0                       # TAGE provider for longest match
system.cpu.branchPred.tage.tageLongestMatchProvider::28         2426                       # TAGE provider for longest match
system.cpu.branchPred.tage.tageLongestMatchProvider::29            0                       # TAGE provider for longest match
system.cpu.branchPred.tage.tageLongestMatchProvider::30        11665                       # TAGE provider for longest match
system.cpu.branchPred.tage.tageLongestMatchProviderCorrect       132554                       # Number of times TAGE Longest Match is the provider and the prediction is correct
system.cpu.branchPred.tage.tageLongestMatchProviderWouldHaveHit          323                       # Number of times TAGE Alt Match is the provider, the prediction is wrong and Longest Match prediction was correct
system.cpu.branchPred.tage.tageLongestMatchProviderWrong         2679                       # Number of times TAGE Longest Match is the provider and the prediction is wrong
system.cpu.branchPred.usedRAS                   37491                       # Number of times the RAS was used to get a target.
system.cpu.branchPred.wormholepredictor.whPredictorCorrect         9409                       # Number of time the WH predictor is the provider and the prediction is correct
system.cpu.branchPred.wormholepredictor.whPredictorWrong           21                       # Number of time the WH predictor is the provider and the prediction is wrong
system.cpu.branchPredindirectMispredicted          155                       # Number of mispredicted indirect branches.
system.cpu.cc_regfile_reads                    990831                       # number of cc regfile reads
system.cpu.cc_regfile_writes                   984377                       # number of cc regfile writes
system.cpu.commit.amos                              0                       # Number of atomic instructions committed
system.cpu.commit.branchMispredicts              6084                       # The number of times a branch was mispredicted
system.cpu.commit.branches                     559313                       # Number of branches committed
system.cpu.commit.bw_lim_events                183737                       # number cycles where commit BW limit reached
system.cpu.commit.commitNonSpecStalls             388                       # The number of times commit has been forced to stall to communicate backwards
system.cpu.commit.commitSquashedInsts          317179                       # The number of squashed insts skipped by commit
system.cpu.commit.committedInsts              2845009                       # Number of instructions committed
system.cpu.commit.committedOps                3282253                       # Number of ops (including micro ops) committed
system.cpu.commit.committed_per_cycle::samples      2769725                       # Number of insts commited each cycle
system.cpu.commit.committed_per_cycle::mean     1.185047                       # Number of insts commited each cycle
system.cpu.commit.committed_per_cycle::stdev     2.302091                       # Number of insts commited each cycle
system.cpu.commit.committed_per_cycle::underflows            0      0.00%      0.00% # Number of insts commited each cycle
system.cpu.commit.committed_per_cycle::0      1870254     67.52%     67.52% # Number of insts commited each cycle
system.cpu.commit.committed_per_cycle::1       291938     10.54%     78.07% # Number of insts commited each cycle
system.cpu.commit.committed_per_cycle::2       131642      4.75%     82.82% # Number of insts commited each cycle
system.cpu.commit.committed_per_cycle::3       126465      4.57%     87.38% # Number of insts commited each cycle
system.cpu.commit.committed_per_cycle::4        59260      2.14%     89.52% # Number of insts commited each cycle
system.cpu.commit.committed_per_cycle::5        22505      0.81%     90.34% # Number of insts commited each cycle
system.cpu.commit.committed_per_cycle::6        59293      2.14%     92.48% # Number of insts commited each cycle
system.cpu.commit.committed_per_cycle::7        24631      0.89%     93.37% # Number of insts commited each cycle
system.cpu.commit.committed_per_cycle::8       183737      6.63%    100.00% # Number of insts commited each cycle
system.cpu.commit.committed_per_cycle::overflows            0      0.00%    100.00% # Number of insts commited each cycle
system.cpu.commit.committed_per_cycle::min_value            0                       # Number of insts commited each cycle
system.cpu.commit.committed_per_cycle::max_value            8                       # Number of insts commited each cycle
system.cpu.commit.committed_per_cycle::total      2769725                       # Number of insts commited each cycle
system.cpu.commit.fp_insts                          0                       # Number of committed floating point instructions.
system.cpu.commit.function_calls                29833                       # Number of function calls committed.
system.cpu.commit.int_insts                   2980509                       # Number of committed integer instructions.
system.cpu.commit.loads                        448105                       # Number of loads committed
system.cpu.commit.membars                         278                       # Number of memory barriers committed
system.cpu.commit.op_class_0::No_OpClass           38      0.00%      0.00% # Class of committed instruction
system.cpu.commit.op_class_0::IntAlu          2375636     72.38%     72.38% # Class of committed instruction
system.cpu.commit.op_class_0::IntMult           17827      0.54%     72.92% # Class of committed instruction
system.cpu.commit.op_class_0::IntDiv              512      0.02%     72.94% # Class of committed instruction
system.cpu.commit.op_class_0::FloatAdd            625      0.02%     72.96% # Class of committed instruction
system.cpu.commit.op_class_0::FloatCmp            137      0.00%     72.96% # Class of committed instruction
system.cpu.commit.op_class_0::FloatCvt           1604      0.05%     73.01% # Class of committed instruction
system.cpu.commit.op_class_0::FloatMult           946      0.03%     73.04% # Class of committed instruction
system.cpu.commit.op_class_0::FloatMultAcc         1506      0.05%     73.08% # Class of committed instruction
system.cpu.commit.op_class_0::FloatDiv            628      0.02%     73.10% # Class of committed instruction
system.cpu.commit.op_class_0::FloatMisc          1211      0.04%     73.14% # Class of committed instruction
system.cpu.commit.op_class_0::FloatSqrt             0      0.00%     73.14% # Class of committed instruction
system.cpu.commit.op_class_0::SimdAdd              98      0.00%     73.14% # Class of committed instruction
system.cpu.commit.op_class_0::SimdAddAcc            0      0.00%     73.14% # Class of committed instruction
system.cpu.commit.op_class_0::SimdAlu             162      0.00%     73.15% # Class of committed instruction
system.cpu.commit.op_class_0::SimdCmp             152      0.00%     73.15% # Class of committed instruction
system.cpu.commit.op_class_0::SimdCvt               0      0.00%     73.15% # Class of committed instruction
system.cpu.commit.op_class_0::SimdMisc            754      0.02%     73.18% # Class of committed instruction
system.cpu.commit.op_class_0::SimdMult              0      0.00%     73.18% # Class of committed instruction
system.cpu.commit.op_class_0::SimdMultAcc            0      0.00%     73.18% # Class of committed instruction
system.cpu.commit.op_class_0::SimdShift             0      0.00%     73.18% # Class of committed instruction
system.cpu.commit.op_class_0::SimdShiftAcc            0      0.00%     73.18% # Class of committed instruction
system.cpu.commit.op_class_0::SimdDiv               0      0.00%     73.18% # Class of committed instruction
system.cpu.commit.op_class_0::SimdSqrt              0      0.00%     73.18% # Class of committed instruction
system.cpu.commit.op_class_0::SimdFloatAdd            0      0.00%     73.18% # Class of committed instruction
system.cpu.commit.op_class_0::SimdFloatAlu            0      0.00%     73.18% # Class of committed instruction
system.cpu.commit.op_class_0::SimdFloatCmp            0      0.00%     73.18% # Class of committed instruction
system.cpu.commit.op_class_0::SimdFloatCvt            0      0.00%     73.18% # Class of committed instruction
system.cpu.commit.op_class_0::SimdFloatDiv            0      0.00%     73.18% # Class of committed instruction
system.cpu.commit.op_class_0::SimdFloatMisc            0      0.00%     73.18% # Class of committed instruction
system.cpu.commit.op_class_0::SimdFloatMult            0      0.00%     73.18% # Class of committed instruction
system.cpu.commit.op_class_0::SimdFloatMultAcc            0      0.00%     73.18% # Class of committed instruction
system.cpu.commit.op_class_0::SimdFloatSqrt            0      0.00%     73.18% # Class of committed instruction
system.cpu.commit.op_class_0::SimdReduceAdd            0      0.00%     73.18% # Class of committed instruction
system.cpu.commit.op_class_0::SimdReduceAlu            0      0.00%     73.18% # Class of committed instruction
system.cpu.commit.op_class_0::SimdReduceCmp            0      0.00%     73.18% # Class of committed instruction
system.cpu.commit.op_class_0::SimdFloatReduceAdd            0      0.00%     73.18% # Class of committed instruction
system.cpu.commit.op_class_0::SimdFloatReduceCmp            0      0.00%     73.18% # Class of committed instruction
system.cpu.commit.op_class_0::SimdAes               0      0.00%     73.18% # Class of committed instruction
system.cpu.commit.op_class_0::SimdAesMix            0      0.00%     73.18% # Class of committed instruction
system.cpu.commit.op_class_0::SimdSha1Hash            0      0.00%     73.18% # Class of committed instruction
system.cpu.commit.op_class_0::SimdSha1Hash2            0      0.00%     73.18% # Class of committed instruction
system.cpu.commit.op_class_0::SimdSha256Hash            0      0.00%     73.18% # Class of committed instruction
system.cpu.commit.op_class_0::SimdSha256Hash2            0      0.00%     73.18% # Class of committed instruction
system.cpu.commit.op_class_0::SimdShaSigma2            0      0.00%     73.18% # Class of committed instruction
system.cpu.commit.op_class_0::SimdShaSigma3            0      0.00%     73.18% # Class of committed instruction
system.cpu.commit.op_class_0::SimdPredAlu            0      0.00%     73.18% # Class of committed instruction
system.cpu.commit.op_class_0::MemRead          448105     13.65%     86.83% # Class of committed instruction
system.cpu.commit.op_class_0::MemWrite         432312     13.17%    100.00% # Class of committed instruction
system.cpu.commit.op_class_0::FloatMemRead            0      0.00%    100.00% # Class of committed instruction
system.cpu.commit.op_class_0::FloatMemWrite            0      0.00%    100.00% # Class of committed instruction
system.cpu.commit.op_class_0::IprAccess             0      0.00%    100.00% # Class of committed instruction
system.cpu.commit.op_class_0::InstPrefetch            0      0.00%    100.00% # Class of committed instruction
system.cpu.commit.op_class_0::total           3282253                       # Class of committed instruction
system.cpu.commit.refs                         880417                       # Number of memory references committed
system.cpu.commit.swp_count                         0                       # Number of s/w prefetches committed
system.cpu.commit.vec_insts                     29063                       # Number of committed Vector instructions.
system.cpu.committedInsts                     2833100                       # Number of Instructions Simulated
system.cpu.committedOps                       3270344                       # Number of Ops (including micro ops) Simulated
system.cpu.cpi                               1.027191                       # CPI: Cycles Per Instruction
system.cpu.cpi_total                         1.027191                       # CPI: Total CPI of All Threads
system.cpu.decode.BlockedCycles               1876343                       # Number of cycles decode is blocked
system.cpu.decode.BranchMispred                  1451                       # Number of times decode detected a branch misprediction
system.cpu.decode.BranchResolved               297024                       # Number of times decode resolved a branch
system.cpu.decode.DecodedInsts                3675593                       # Number of instructions handled by decode
system.cpu.decode.IdleCycles                   333589                       # Number of cycles decode is idle
system.cpu.decode.RunCycles                    505520                       # Number of cycles decode is running
system.cpu.decode.SquashCycles                   9052                       # Number of cycles decode is squashing
system.cpu.decode.SquashedInsts                  4553                       # Number of squashed instructions handled by decode
system.cpu.decode.UnblockCycles                 89269                       # Number of cycles decode is unblocking
system.cpu.dtb.accesses                             0                       # DTB accesses
system.cpu.dtb.align_faults                         0                       # Number of TLB faults due to alignment restrictions
system.cpu.dtb.domain_faults                        0                       # Number of TLB faults due to domain restrictions
system.cpu.dtb.flush_entries                        0                       # Number of entries that have been flushed from TLB
system.cpu.dtb.flush_tlb                            0                       # Number of times complete TLB was flushed
system.cpu.dtb.flush_tlb_asid                       0                       # Number of times TLB was flushed by ASID
system.cpu.dtb.flush_tlb_mva                        0                       # Number of times TLB was flushed by MVA
system.cpu.dtb.flush_tlb_mva_asid                   0                       # Number of times TLB was flushed by MVA & ASID
system.cpu.dtb.hits                                 0                       # DTB hits
system.cpu.dtb.inst_accesses                        0                       # ITB inst accesses
system.cpu.dtb.inst_hits                            0                       # ITB inst hits
system.cpu.dtb.inst_misses                          0                       # ITB inst misses
system.cpu.dtb.misses                               0                       # DTB misses
system.cpu.dtb.perms_faults                         0                       # Number of TLB faults due to permissions restrictions
system.cpu.dtb.prefetch_faults                      0                       # Number of TLB faults due to prefetch
system.cpu.dtb.read_accesses                        0                       # DTB read accesses
system.cpu.dtb.read_hits                            0                       # DTB read hits
system.cpu.dtb.read_misses                          0                       # DTB read misses
system.cpu.dtb.stage2_mmu.stage2_tlb.accesses            0                       # DTB accesses
system.cpu.dtb.stage2_mmu.stage2_tlb.align_faults            0                       # Number of TLB faults due to alignment restrictions
system.cpu.dtb.stage2_mmu.stage2_tlb.domain_faults            0                       # Number of TLB faults due to domain restrictions
system.cpu.dtb.stage2_mmu.stage2_tlb.flush_entries            0                       # Number of entries that have been flushed from TLB
system.cpu.dtb.stage2_mmu.stage2_tlb.flush_tlb            0                       # Number of times complete TLB was flushed
system.cpu.dtb.stage2_mmu.stage2_tlb.flush_tlb_asid            0                       # Number of times TLB was flushed by ASID
system.cpu.dtb.stage2_mmu.stage2_tlb.flush_tlb_mva            0                       # Number of times TLB was flushed by MVA
system.cpu.dtb.stage2_mmu.stage2_tlb.flush_tlb_mva_asid            0                       # Number of times TLB was flushed by MVA & ASID
system.cpu.dtb.stage2_mmu.stage2_tlb.hits            0                       # DTB hits
system.cpu.dtb.stage2_mmu.stage2_tlb.inst_accesses            0                       # ITB inst accesses
system.cpu.dtb.stage2_mmu.stage2_tlb.inst_hits            0                       # ITB inst hits
system.cpu.dtb.stage2_mmu.stage2_tlb.inst_misses            0                       # ITB inst misses
system.cpu.dtb.stage2_mmu.stage2_tlb.misses            0                       # DTB misses
system.cpu.dtb.stage2_mmu.stage2_tlb.perms_faults            0                       # Number of TLB faults due to permissions restrictions
system.cpu.dtb.stage2_mmu.stage2_tlb.prefetch_faults            0                       # Number of TLB faults due to prefetch
system.cpu.dtb.stage2_mmu.stage2_tlb.read_accesses            0                       # DTB read accesses
system.cpu.dtb.stage2_mmu.stage2_tlb.read_hits            0                       # DTB read hits
system.cpu.dtb.stage2_mmu.stage2_tlb.read_misses            0                       # DTB read misses
system.cpu.dtb.stage2_mmu.stage2_tlb.walker.walkRequestOrigin_Requested::Data            0                       # Table walker requests started/completed, data/inst
system.cpu.dtb.stage2_mmu.stage2_tlb.walker.walkRequestOrigin_Requested::Inst            0                       # Table walker requests started/completed, data/inst
system.cpu.dtb.stage2_mmu.stage2_tlb.walker.walkRequestOrigin_Requested::total            0                       # Table walker requests started/completed, data/inst
system.cpu.dtb.stage2_mmu.stage2_tlb.walker.walkRequestOrigin_Completed::Data            0                       # Table walker requests started/completed, data/inst
system.cpu.dtb.stage2_mmu.stage2_tlb.walker.walkRequestOrigin_Completed::Inst            0                       # Table walker requests started/completed, data/inst
system.cpu.dtb.stage2_mmu.stage2_tlb.walker.walkRequestOrigin_Completed::total            0                       # Table walker requests started/completed, data/inst
system.cpu.dtb.stage2_mmu.stage2_tlb.walker.walkRequestOrigin::total            0                       # Table walker requests started/completed, data/inst
system.cpu.dtb.stage2_mmu.stage2_tlb.walker.walks            0                       # Table walker walks requested
system.cpu.dtb.stage2_mmu.stage2_tlb.write_accesses            0                       # DTB write accesses
system.cpu.dtb.stage2_mmu.stage2_tlb.write_hits            0                       # DTB write hits
system.cpu.dtb.stage2_mmu.stage2_tlb.write_misses            0                       # DTB write misses
system.cpu.dtb.walker.walkRequestOrigin_Requested::Data            0                       # Table walker requests started/completed, data/inst
system.cpu.dtb.walker.walkRequestOrigin_Requested::Inst            0                       # Table walker requests started/completed, data/inst
system.cpu.dtb.walker.walkRequestOrigin_Requested::total            0                       # Table walker requests started/completed, data/inst
system.cpu.dtb.walker.walkRequestOrigin_Completed::Data            0                       # Table walker requests started/completed, data/inst
system.cpu.dtb.walker.walkRequestOrigin_Completed::Inst            0                       # Table walker requests started/completed, data/inst
system.cpu.dtb.walker.walkRequestOrigin_Completed::total            0                       # Table walker requests started/completed, data/inst
system.cpu.dtb.walker.walkRequestOrigin::total            0                       # Table walker requests started/completed, data/inst
system.cpu.dtb.walker.walks                         0                       # Table walker walks requested
system.cpu.dtb.write_accesses                       0                       # DTB write accesses
system.cpu.dtb.write_hits                           0                       # DTB write hits
system.cpu.dtb.write_misses                         0                       # DTB write misses
system.cpu.fetch.Branches                      666688                       # Number of branches that fetch encountered
system.cpu.fetch.CacheLines                    456849                       # Number of cache lines fetched
system.cpu.fetch.Cycles                       2290027                       # Number of cycles fetch has run and was not squashing or blocked
system.cpu.fetch.IcacheSquashes                  3200                       # Number of outstanding Icache misses that were squashed
system.cpu.fetch.IcacheWaitRetryStallCycles           36                       # Number of stall cycles due to full MSHR
system.cpu.fetch.Insts                        3321047                       # Number of instructions fetch has processed
system.cpu.fetch.MiscStallCycles                  169                       # Number of cycles fetch has spent waiting on interrupts, or bad addresses, or out of MSHRs
system.cpu.fetch.PendingTrapStallCycles           118                       # Number of stall cycles due to pending traps
system.cpu.fetch.SquashCycles                   20976                       # Number of cycles fetch has spent squashing
system.cpu.fetch.branchRate                  0.229092                       # Number of branch fetches per cycle
system.cpu.fetch.icacheStallCycles             512935                       # Number of cycles fetch is stalled on an Icache miss
system.cpu.fetch.predictedBranches             349736                       # Number of branches that fetch has predicted taken
system.cpu.fetch.rate                        1.141200                       # Number of inst fetches per cycle
system.cpu.fetch.rateDist::samples            2813773                       # Number of instructions fetched each cycle (Total)
system.cpu.fetch.rateDist::mean              1.370055                       # Number of instructions fetched each cycle (Total)
system.cpu.fetch.rateDist::stdev             2.636679                       # Number of instructions fetched each cycle (Total)
system.cpu.fetch.rateDist::underflows               0      0.00%      0.00% # Number of instructions fetched each cycle (Total)
system.cpu.fetch.rateDist::0                  2080513     73.94%     73.94% # Number of instructions fetched each cycle (Total)
system.cpu.fetch.rateDist::1                    64743      2.30%     76.24% # Number of instructions fetched each cycle (Total)
system.cpu.fetch.rateDist::2                    86802      3.08%     79.33% # Number of instructions fetched each cycle (Total)
system.cpu.fetch.rateDist::3                    52074      1.85%     81.18% # Number of instructions fetched each cycle (Total)
system.cpu.fetch.rateDist::4                    95053      3.38%     84.55% # Number of instructions fetched each cycle (Total)
system.cpu.fetch.rateDist::5                    79411      2.82%     87.38% # Number of instructions fetched each cycle (Total)
system.cpu.fetch.rateDist::6                    49249      1.75%     89.13% # Number of instructions fetched each cycle (Total)
system.cpu.fetch.rateDist::7                    59730      2.12%     91.25% # Number of instructions fetched each cycle (Total)
system.cpu.fetch.rateDist::8                   246198      8.75%    100.00% # Number of instructions fetched each cycle (Total)
system.cpu.fetch.rateDist::overflows                0      0.00%    100.00% # Number of instructions fetched each cycle (Total)
system.cpu.fetch.rateDist::min_value                0                       # Number of instructions fetched each cycle (Total)
system.cpu.fetch.rateDist::max_value                8                       # Number of instructions fetched each cycle (Total)
system.cpu.fetch.rateDist::total              2813773                       # Number of instructions fetched each cycle (Total)
system.cpu.idleCycles                           96362                       # Total number of cycles that the CPU has spent unscheduled due to idling
system.cpu.iew.branchMispredicts                 7799                       # Number of branch mispredicts detected at execute
system.cpu.iew.exec_branches                   608190                       # Number of branches executed
system.cpu.iew.exec_nop                         12178                       # number of nop insts executed
system.cpu.iew.exec_rate                     1.215688                       # Inst execution rate
system.cpu.iew.exec_refs                       981772                       # number of memory reference insts executed
system.cpu.iew.exec_stores                     464590                       # Number of stores executed
system.cpu.iew.exec_swp                             0                       # number of swp insts executed
system.cpu.iew.iewBlockCycles                   57688                       # Number of cycles IEW is blocking
system.cpu.iew.iewDispLoadInsts                508229                       # Number of dispatched load instructions
system.cpu.iew.iewDispNonSpecInsts                531                       # Number of dispatched non-speculative instructions
system.cpu.iew.iewDispSquashedInsts               897                       # Number of squashed instructions skipped by dispatch
system.cpu.iew.iewDispStoreInsts               475939                       # Number of dispatched store instructions
system.cpu.iew.iewDispatchedInsts             3606788                       # Number of instructions dispatched to IQ
system.cpu.iew.iewExecLoadInsts                517182                       # Number of load instructions executed
system.cpu.iew.iewExecSquashedInsts              7772                       # Number of squashed instructions skipped in execute
system.cpu.iew.iewExecutedInsts               3537815                       # Number of executed instructions
system.cpu.iew.iewIQFullEvents                    370                       # Number of times the IQ has become full, causing a stall
system.cpu.iew.iewIdleCycles                        0                       # Number of cycles IEW is idle
system.cpu.iew.iewLSQFullEvents                 47804                       # Number of times the LSQ has become full, causing a stall
system.cpu.iew.iewSquashCycles                   9052                       # Number of cycles IEW is squashing
system.cpu.iew.iewUnblockCycles                 48208                       # Number of cycles IEW is unblocking
system.cpu.iew.lsq.thread0.blockedLoads             0                       # Number of blocked loads due to partial load-store forwarding
system.cpu.iew.lsq.thread0.cacheBlocked         14052                       # Number of times an access to memory failed due to the cache being blocked
system.cpu.iew.lsq.thread0.forwLoads            15930                       # Number of loads that had data forwarded from stores
system.cpu.iew.lsq.thread0.ignoredResponses           11                       # Number of memory responses ignored because the instruction is squashed
system.cpu.iew.lsq.thread0.invAddrLoads             0                       # Number of loads ignored due to an invalid address
system.cpu.iew.lsq.thread0.invAddrSwpfs             0                       # Number of software prefetches ignored due to an invalid address
system.cpu.iew.lsq.thread0.memOrderViolation           38                       # Number of memory ordering violations
system.cpu.iew.lsq.thread0.rescheduledLoads         1290                       # Number of loads that were rescheduled
system.cpu.iew.lsq.thread0.squashedLoads        60124                       # Number of loads squashed
system.cpu.iew.lsq.thread0.squashedStores        43627                       # Number of stores squashed
system.cpu.iew.memOrderViolationEvents             38                       # Number of memory order violations
system.cpu.iew.predictedNotTakenIncorrect         4279                       # Number of branches that were predicted not taken incorrectly
system.cpu.iew.predictedTakenIncorrect           3520                       # Number of branches that were predicted taken incorrectly
system.cpu.iew.wb_consumers                   3528968                       # num instructions consuming a value
system.cpu.iew.wb_count                       3502325                       # cumulative count of insts written-back
system.cpu.iew.wb_fanout                     0.592301                       # average fanout of values written-back
system.cpu.iew.wb_producers                   2090211                       # num instructions producing a value
system.cpu.iew.wb_rate                       1.203492                       # insts written-back per cycle
system.cpu.iew.wb_sent                        3513385                       # cumulative count of insts sent to commit
system.cpu.int_regfile_reads                  4007523                       # number of integer regfile reads
system.cpu.int_regfile_writes                 2558208                       # number of integer regfile writes
system.cpu.ipc                               0.973529                       # IPC: Instructions Per Cycle
system.cpu.ipc_total                         0.973529                       # IPC: Total IPC of All Threads
system.cpu.iq.FU_type_0::No_OpClass                60      0.00%      0.00% # Type of FU issued
system.cpu.iq.FU_type_0::IntAlu               2531386     71.40%     71.40% # Type of FU issued
system.cpu.iq.FU_type_0::IntMult                19071      0.54%     71.93% # Type of FU issued
system.cpu.iq.FU_type_0::IntDiv                   603      0.02%     71.95% # Type of FU issued
system.cpu.iq.FU_type_0::FloatAdd                 647      0.02%     71.97% # Type of FU issued
system.cpu.iq.FU_type_0::FloatCmp                 137      0.00%     71.97% # Type of FU issued
system.cpu.iq.FU_type_0::FloatCvt                1991      0.06%     72.03% # Type of FU issued
system.cpu.iq.FU_type_0::FloatMult               1044      0.03%     72.06% # Type of FU issued
system.cpu.iq.FU_type_0::FloatMultAcc            1535      0.04%     72.10% # Type of FU issued
system.cpu.iq.FU_type_0::FloatDiv                 800      0.02%     72.13% # Type of FU issued
system.cpu.iq.FU_type_0::FloatMisc               1521      0.04%     72.17% # Type of FU issued
system.cpu.iq.FU_type_0::FloatSqrt                  0      0.00%     72.17% # Type of FU issued
system.cpu.iq.FU_type_0::SimdAdd                  108      0.00%     72.17% # Type of FU issued
system.cpu.iq.FU_type_0::SimdAddAcc                 0      0.00%     72.17% # Type of FU issued
system.cpu.iq.FU_type_0::SimdAlu                  176      0.00%     72.18% # Type of FU issued
system.cpu.iq.FU_type_0::SimdCmp                  160      0.00%     72.18% # Type of FU issued
system.cpu.iq.FU_type_0::SimdCvt                    0      0.00%     72.18% # Type of FU issued
system.cpu.iq.FU_type_0::SimdMisc                 826      0.02%     72.20% # Type of FU issued
system.cpu.iq.FU_type_0::SimdMult                   0      0.00%     72.20% # Type of FU issued
system.cpu.iq.FU_type_0::SimdMultAcc                0      0.00%     72.20% # Type of FU issued
system.cpu.iq.FU_type_0::SimdShift                  0      0.00%     72.20% # Type of FU issued
system.cpu.iq.FU_type_0::SimdShiftAcc               0      0.00%     72.20% # Type of FU issued
system.cpu.iq.FU_type_0::SimdDiv                    0      0.00%     72.20% # Type of FU issued
system.cpu.iq.FU_type_0::SimdSqrt                   0      0.00%     72.20% # Type of FU issued
system.cpu.iq.FU_type_0::SimdFloatAdd               0      0.00%     72.20% # Type of FU issued
system.cpu.iq.FU_type_0::SimdFloatAlu               0      0.00%     72.20% # Type of FU issued
system.cpu.iq.FU_type_0::SimdFloatCmp               0      0.00%     72.20% # Type of FU issued
system.cpu.iq.FU_type_0::SimdFloatCvt               0      0.00%     72.20% # Type of FU issued
system.cpu.iq.FU_type_0::SimdFloatDiv               0      0.00%     72.20% # Type of FU issued
system.cpu.iq.FU_type_0::SimdFloatMisc              0      0.00%     72.20% # Type of FU issued
system.cpu.iq.FU_type_0::SimdFloatMult              0      0.00%     72.20% # Type of FU issued
system.cpu.iq.FU_type_0::SimdFloatMultAcc            0      0.00%     72.20% # Type of FU issued
system.cpu.iq.FU_type_0::SimdFloatSqrt              0      0.00%     72.20% # Type of FU issued
system.cpu.iq.FU_type_0::SimdReduceAdd              0      0.00%     72.20% # Type of FU issued
system.cpu.iq.FU_type_0::SimdReduceAlu              0      0.00%     72.20% # Type of FU issued
system.cpu.iq.FU_type_0::SimdReduceCmp              0      0.00%     72.20% # Type of FU issued
system.cpu.iq.FU_type_0::SimdFloatReduceAdd            0      0.00%     72.20% # Type of FU issued
system.cpu.iq.FU_type_0::SimdFloatReduceCmp            0      0.00%     72.20% # Type of FU issued
system.cpu.iq.FU_type_0::SimdAes                    0      0.00%     72.20% # Type of FU issued
system.cpu.iq.FU_type_0::SimdAesMix                 0      0.00%     72.20% # Type of FU issued
system.cpu.iq.FU_type_0::SimdSha1Hash               0      0.00%     72.20% # Type of FU issued
system.cpu.iq.FU_type_0::SimdSha1Hash2              0      0.00%     72.20% # Type of FU issued
system.cpu.iq.FU_type_0::SimdSha256Hash             0      0.00%     72.20% # Type of FU issued
system.cpu.iq.FU_type_0::SimdSha256Hash2            0      0.00%     72.20% # Type of FU issued
system.cpu.iq.FU_type_0::SimdShaSigma2              0      0.00%     72.20% # Type of FU issued
system.cpu.iq.FU_type_0::SimdShaSigma3              0      0.00%     72.20% # Type of FU issued
system.cpu.iq.FU_type_0::SimdPredAlu                0      0.00%     72.20% # Type of FU issued
system.cpu.iq.FU_type_0::MemRead               519253     14.65%     86.85% # Type of FU issued
system.cpu.iq.FU_type_0::MemWrite              466269     13.15%    100.00% # Type of FU issued
system.cpu.iq.FU_type_0::FloatMemRead               0      0.00%    100.00% # Type of FU issued
system.cpu.iq.FU_type_0::FloatMemWrite              0      0.00%    100.00% # Type of FU issued
system.cpu.iq.FU_type_0::IprAccess                  0      0.00%    100.00% # Type of FU issued
system.cpu.iq.FU_type_0::InstPrefetch               0      0.00%    100.00% # Type of FU issued
system.cpu.iq.FU_type_0::total                3545587                       # Type of FU issued
system.cpu.iq.fp_alu_accesses                       0                       # Number of floating point alu accesses
system.cpu.iq.fp_inst_queue_reads                   0                       # Number of floating instruction queue reads
system.cpu.iq.fp_inst_queue_wakeup_accesses            0                       # Number of floating instruction queue wakeup accesses
system.cpu.iq.fp_inst_queue_writes                  0                       # Number of floating instruction queue writes
system.cpu.iq.fu_busy_cnt                         959                       # FU busy when requested
system.cpu.iq.fu_busy_rate                   0.000270                       # FU busy rate (busy events/executed inst)
system.cpu.iq.fu_full::No_OpClass                   0      0.00%      0.00% # attempts to use FU when none available
system.cpu.iq.fu_full::IntAlu                       0      0.00%      0.00% # attempts to use FU when none available
system.cpu.iq.fu_full::IntMult                    669     69.76%     69.76% # attempts to use FU when none available
system.cpu.iq.fu_full::IntDiv                      39      4.07%     73.83% # attempts to use FU when none available
system.cpu.iq.fu_full::FloatAdd                     0      0.00%     73.83% # attempts to use FU when none available
system.cpu.iq.fu_full::FloatCmp                     0      0.00%     73.83% # attempts to use FU when none available
system.cpu.iq.fu_full::FloatCvt                     0      0.00%     73.83% # attempts to use FU when none available
system.cpu.iq.fu_full::FloatMult                  113     11.78%     85.61% # attempts to use FU when none available
system.cpu.iq.fu_full::FloatMultAcc                71      7.40%     93.01% # attempts to use FU when none available
system.cpu.iq.fu_full::FloatDiv                     0      0.00%     93.01% # attempts to use FU when none available
system.cpu.iq.fu_full::FloatMisc                   67      6.99%    100.00% # attempts to use FU when none available
system.cpu.iq.fu_full::FloatSqrt                    0      0.00%    100.00% # attempts to use FU when none available
system.cpu.iq.fu_full::SimdAdd                      0      0.00%    100.00% # attempts to use FU when none available
system.cpu.iq.fu_full::SimdAddAcc                   0      0.00%    100.00% # attempts to use FU when none available
system.cpu.iq.fu_full::SimdAlu                      0      0.00%    100.00% # attempts to use FU when none available
system.cpu.iq.fu_full::SimdCmp                      0      0.00%    100.00% # attempts to use FU when none available
system.cpu.iq.fu_full::SimdCvt                      0      0.00%    100.00% # attempts to use FU when none available
system.cpu.iq.fu_full::SimdMisc                     0      0.00%    100.00% # attempts to use FU when none available
system.cpu.iq.fu_full::SimdMult                     0      0.00%    100.00% # attempts to use FU when none available
system.cpu.iq.fu_full::SimdMultAcc                  0      0.00%    100.00% # attempts to use FU when none available
system.cpu.iq.fu_full::SimdShift                    0      0.00%    100.00% # attempts to use FU when none available
system.cpu.iq.fu_full::SimdShiftAcc                 0      0.00%    100.00% # attempts to use FU when none available
system.cpu.iq.fu_full::SimdDiv                      0      0.00%    100.00% # attempts to use FU when none available
system.cpu.iq.fu_full::SimdSqrt                     0      0.00%    100.00% # attempts to use FU when none available
system.cpu.iq.fu_full::SimdFloatAdd                 0      0.00%    100.00% # attempts to use FU when none available
system.cpu.iq.fu_full::SimdFloatAlu                 0      0.00%    100.00% # attempts to use FU when none available
system.cpu.iq.fu_full::SimdFloatCmp                 0      0.00%    100.00% # attempts to use FU when none available
system.cpu.iq.fu_full::SimdFloatCvt                 0      0.00%    100.00% # attempts to use FU when none available
system.cpu.iq.fu_full::SimdFloatDiv                 0      0.00%    100.00% # attempts to use FU when none available
system.cpu.iq.fu_full::SimdFloatMisc                0      0.00%    100.00% # attempts to use FU when none available
system.cpu.iq.fu_full::SimdFloatMult                0      0.00%    100.00% # attempts to use FU when none available
system.cpu.iq.fu_full::SimdFloatMultAcc             0      0.00%    100.00% # attempts to use FU when none available
system.cpu.iq.fu_full::SimdFloatSqrt                0      0.00%    100.00% # attempts to use FU when none available
system.cpu.iq.fu_full::SimdReduceAdd                0      0.00%    100.00% # attempts to use FU when none available
system.cpu.iq.fu_full::SimdReduceAlu                0      0.00%    100.00% # attempts to use FU when none available
system.cpu.iq.fu_full::SimdReduceCmp                0      0.00%    100.00% # attempts to use FU when none available
system.cpu.iq.fu_full::SimdFloatReduceAdd            0      0.00%    100.00% # attempts to use FU when none available
system.cpu.iq.fu_full::SimdFloatReduceCmp            0      0.00%    100.00% # attempts to use FU when none available
system.cpu.iq.fu_full::SimdAes                      0      0.00%    100.00% # attempts to use FU when none available
system.cpu.iq.fu_full::SimdAesMix                   0      0.00%    100.00% # attempts to use FU when none available
system.cpu.iq.fu_full::SimdSha1Hash                 0      0.00%    100.00% # attempts to use FU when none available
system.cpu.iq.fu_full::SimdSha1Hash2                0      0.00%    100.00% # attempts to use FU when none available
system.cpu.iq.fu_full::SimdSha256Hash               0      0.00%    100.00% # attempts to use FU when none available
system.cpu.iq.fu_full::SimdSha256Hash2              0      0.00%    100.00% # attempts to use FU when none available
system.cpu.iq.fu_full::SimdShaSigma2                0      0.00%    100.00% # attempts to use FU when none available
system.cpu.iq.fu_full::SimdShaSigma3                0      0.00%    100.00% # attempts to use FU when none available
system.cpu.iq.fu_full::SimdPredAlu                  0      0.00%    100.00% # attempts to use FU when none available
system.cpu.iq.fu_full::MemRead                      0      0.00%    100.00% # attempts to use FU when none available
system.cpu.iq.fu_full::MemWrite                     0      0.00%    100.00% # attempts to use FU when none available
system.cpu.iq.fu_full::FloatMemRead                 0      0.00%    100.00% # attempts to use FU when none available
system.cpu.iq.fu_full::FloatMemWrite                0      0.00%    100.00% # attempts to use FU when none available
system.cpu.iq.fu_full::IprAccess                    0      0.00%    100.00% # attempts to use FU when none available
system.cpu.iq.fu_full::InstPrefetch                 0      0.00%    100.00% # attempts to use FU when none available
system.cpu.iq.int_alu_accesses                3514004                       # Number of integer alu accesses
system.cpu.iq.int_inst_queue_reads            9848932                       # Number of integer instruction queue reads
system.cpu.iq.int_inst_queue_wakeup_accesses      3471229                       # Number of integer instruction queue wakeup accesses
system.cpu.iq.int_inst_queue_writes           3878107                       # Number of integer instruction queue writes
system.cpu.iq.iqInstsAdded                    3594079                       # Number of instructions added to the IQ (excludes non-spec)
system.cpu.iq.iqInstsIssued                   3545587                       # Number of instructions issued
system.cpu.iq.iqNonSpecInstsAdded                 531                       # Number of non-speculative instructions added to the IQ
system.cpu.iq.iqSquashedInstsExamined          324265                       # Number of squashed instructions iterated over during squash; mainly for profiling
system.cpu.iq.iqSquashedInstsIssued              8187                       # Number of squashed instructions issued
system.cpu.iq.iqSquashedNonSpecRemoved            143                       # Number of squashed non-spec instructions that were removed
system.cpu.iq.iqSquashedOperandsExamined       184634                       # Number of squashed operands that are examined and possibly removed from graph
system.cpu.iq.issued_per_cycle::samples       2813773                       # Number of insts issued each cycle
system.cpu.iq.issued_per_cycle::mean         1.260083                       # Number of insts issued each cycle
system.cpu.iq.issued_per_cycle::stdev        1.713949                       # Number of insts issued each cycle
system.cpu.iq.issued_per_cycle::underflows            0      0.00%      0.00% # Number of insts issued each cycle
system.cpu.iq.issued_per_cycle::0             1707632     60.69%     60.69% # Number of insts issued each cycle
system.cpu.iq.issued_per_cycle::1              143676      5.11%     65.79% # Number of insts issued each cycle
system.cpu.iq.issued_per_cycle::2              163028      5.79%     71.59% # Number of insts issued each cycle
system.cpu.iq.issued_per_cycle::3              121893      4.33%     75.92% # Number of insts issued each cycle
system.cpu.iq.issued_per_cycle::4              677544     24.08%    100.00% # Number of insts issued each cycle
system.cpu.iq.issued_per_cycle::overflows            0      0.00%    100.00% # Number of insts issued each cycle
system.cpu.iq.issued_per_cycle::min_value            0                       # Number of insts issued each cycle
system.cpu.iq.issued_per_cycle::max_value            4                       # Number of insts issued each cycle
system.cpu.iq.issued_per_cycle::total         2813773                       # Number of insts issued each cycle
system.cpu.iq.rate                           1.218358                       # Inst issue rate
system.cpu.iq.vec_alu_accesses                  32482                       # Number of vector alu accesses
system.cpu.iq.vec_inst_queue_reads              65161                       # Number of vector instruction queue reads
system.cpu.iq.vec_inst_queue_wakeup_accesses        31096                       # Number of vector instruction queue wakeup accesses
system.cpu.iq.vec_inst_queue_writes             40803                       # Number of vector instruction queue writes
system.cpu.itb.accesses                             0                       # DTB accesses
system.cpu.itb.align_faults                         0                       # Number of TLB faults due to alignment restrictions
system.cpu.itb.domain_faults                        0                       # Number of TLB faults due to domain restrictions
system.cpu.itb.flush_entries                        0                       # Number of entries that have been flushed from TLB
system.cpu.itb.flush_tlb                            0                       # Number of times complete TLB was flushed
system.cpu.itb.flush_tlb_asid                       0                       # Number of times TLB was flushed by ASID
system.cpu.itb.flush_tlb_mva                        0                       # Number of times TLB was flushed by MVA
system.cpu.itb.flush_tlb_mva_asid                   0                       # Number of times TLB was flushed by MVA & ASID
system.cpu.itb.hits                                 0                       # DTB hits
system.cpu.itb.inst_accesses                        0                       # ITB inst accesses
system.cpu.itb.inst_hits                            0                       # ITB inst hits
system.cpu.itb.inst_misses                          0                       # ITB inst misses
system.cpu.itb.misses                               0                       # DTB misses
system.cpu.itb.perms_faults                         0                       # Number of TLB faults due to permissions restrictions
system.cpu.itb.prefetch_faults                      0                       # Number of TLB faults due to prefetch
system.cpu.itb.read_accesses                        0                       # DTB read accesses
system.cpu.itb.read_hits                            0                       # DTB read hits
system.cpu.itb.read_misses                          0                       # DTB read misses
system.cpu.itb.stage2_mmu.stage2_tlb.accesses            0                       # DTB accesses
system.cpu.itb.stage2_mmu.stage2_tlb.align_faults            0                       # Number of TLB faults due to alignment restrictions
system.cpu.itb.stage2_mmu.stage2_tlb.domain_faults            0                       # Number of TLB faults due to domain restrictions
system.cpu.itb.stage2_mmu.stage2_tlb.flush_entries            0                       # Number of entries that have been flushed from TLB
system.cpu.itb.stage2_mmu.stage2_tlb.flush_tlb            0                       # Number of times complete TLB was flushed
system.cpu.itb.stage2_mmu.stage2_tlb.flush_tlb_asid            0                       # Number of times TLB was flushed by ASID
system.cpu.itb.stage2_mmu.stage2_tlb.flush_tlb_mva            0                       # Number of times TLB was flushed by MVA
system.cpu.itb.stage2_mmu.stage2_tlb.flush_tlb_mva_asid            0                       # Number of times TLB was flushed by MVA & ASID
system.cpu.itb.stage2_mmu.stage2_tlb.hits            0                       # DTB hits
system.cpu.itb.stage2_mmu.stage2_tlb.inst_accesses            0                       # ITB inst accesses
system.cpu.itb.stage2_mmu.stage2_tlb.inst_hits            0                       # ITB inst hits
system.cpu.itb.stage2_mmu.stage2_tlb.inst_misses            0                       # ITB inst misses
system.cpu.itb.stage2_mmu.stage2_tlb.misses            0                       # DTB misses
system.cpu.itb.stage2_mmu.stage2_tlb.perms_faults            0                       # Number of TLB faults due to permissions restrictions
system.cpu.itb.stage2_mmu.stage2_tlb.prefetch_faults            0                       # Number of TLB faults due to prefetch
system.cpu.itb.stage2_mmu.stage2_tlb.read_accesses            0                       # DTB read accesses
system.cpu.itb.stage2_mmu.stage2_tlb.read_hits            0                       # DTB read hits
system.cpu.itb.stage2_mmu.stage2_tlb.read_misses            0                       # DTB read misses
system.cpu.itb.stage2_mmu.stage2_tlb.walker.walkRequestOrigin_Requested::Data            0                       # Table walker requests started/completed, data/inst
system.cpu.itb.stage2_mmu.stage2_tlb.walker.walkRequestOrigin_Requested::Inst            0                       # Table walker requests started/completed, data/inst
system.cpu.itb.stage2_mmu.stage2_tlb.walker.walkRequestOrigin_Requested::total            0                       # Table walker requests started/completed, data/inst
system.cpu.itb.stage2_mmu.stage2_tlb.walker.walkRequestOrigin_Completed::Data            0                       # Table walker requests started/completed, data/inst
system.cpu.itb.stage2_mmu.stage2_tlb.walker.walkRequestOrigin_Completed::Inst            0                       # Table walker requests started/completed, data/inst
system.cpu.itb.stage2_mmu.stage2_tlb.walker.walkRequestOrigin_Completed::total            0                       # Table walker requests started/completed, data/inst
system.cpu.itb.stage2_mmu.stage2_tlb.walker.walkRequestOrigin::total            0                       # Table walker requests started/completed, data/inst
system.cpu.itb.stage2_mmu.stage2_tlb.walker.walks            0                       # Table walker walks requested
system.cpu.itb.stage2_mmu.stage2_tlb.write_accesses            0                       # DTB write accesses
system.cpu.itb.stage2_mmu.stage2_tlb.write_hits            0                       # DTB write hits
system.cpu.itb.stage2_mmu.stage2_tlb.write_misses            0                       # DTB write misses
system.cpu.itb.walker.walkRequestOrigin_Requested::Data            0                       # Table walker requests started/completed, data/inst
system.cpu.itb.walker.walkRequestOrigin_Requested::Inst            0                       # Table walker requests started/completed, data/inst
system.cpu.itb.walker.walkRequestOrigin_Requested::total            0                       # Table walker requests started/completed, data/inst
system.cpu.itb.walker.walkRequestOrigin_Completed::Data            0                       # Table walker requests started/completed, data/inst
system.cpu.itb.walker.walkRequestOrigin_Completed::Inst            0                       # Table walker requests started/completed, data/inst
system.cpu.itb.walker.walkRequestOrigin_Completed::total            0                       # Table walker requests started/completed, data/inst
system.cpu.itb.walker.walkRequestOrigin::total            0                       # Table walker requests started/completed, data/inst
system.cpu.itb.walker.walks                         0                       # Table walker walks requested
system.cpu.itb.write_accesses                       0                       # DTB write accesses
system.cpu.itb.write_hits                           0                       # DTB write hits
system.cpu.itb.write_misses                         0                       # DTB write misses
system.cpu.memDep0.conflictingLoads              5419                       # Number of conflicting loads.
system.cpu.memDep0.conflictingStores             4946                       # Number of conflicting stores.
system.cpu.memDep0.insertedLoads               508229                       # Number of loads inserted to the mem dependence unit.
system.cpu.memDep0.insertedStores              475939                       # Number of stores inserted to the mem dependence unit.
system.cpu.misc_regfile_reads                 2455477                       # number of misc regfile reads
system.cpu.misc_regfile_writes                   6559                       # number of misc regfile writes
system.cpu.numCycles                          2910135                       # number of cpu cycles simulated
system.cpu.numWorkItemsCompleted                    0                       # number of work items this cpu completed
system.cpu.numWorkItemsStarted                      0                       # number of work items this cpu started
system.cpu.rename.BlockCycles                  112383                       # Number of cycles rename is blocking
system.cpu.rename.CommittedMaps               3318812                       # Number of HB maps that are committed
system.cpu.rename.IQFullEvents                  49245                       # Number of times rename has blocked due to IQ full
system.cpu.rename.IdleCycles                   374908                       # Number of cycles rename is idle
system.cpu.rename.LQFullEvents                    219                       # Number of times rename has blocked due to LQ full
system.cpu.rename.ROBFullEvents                   425                       # Number of times rename has blocked due to ROB full
system.cpu.rename.RenameLookups               5442689                       # Number of register rename lookups that rename has made
system.cpu.rename.RenamedInsts                3632567                       # Number of instructions processed by rename
system.cpu.rename.RenamedOperands             3680128                       # Number of destination operands rename has renamed
system.cpu.rename.RunCycles                    552379                       # Number of cycles rename is running
system.cpu.rename.SQFullEvents                 256379                       # Number of times rename has blocked due to SQ full
system.cpu.rename.SquashCycles                   9052                       # Number of cycles rename is squashing
system.cpu.rename.UnblockCycles                348186                       # Number of cycles rename is unblocking
system.cpu.rename.UndoneMaps                   361316                       # Number of HB maps that are undone due to squashing
system.cpu.rename.int_rename_lookups          4106107                       # Number of integer rename lookups
system.cpu.rename.serializeStallCycles        1416865                       # count of cycles rename stalled for serializing inst
system.cpu.rename.serializingInsts              24365                       # count of serializing insts renamed
system.cpu.rename.skidInsts                    406200                       # count of insts added to the skid buffer
system.cpu.rename.tempSerializingInsts            530                       # count of temporary serializing insts renamed
system.cpu.rename.vec_rename_lookups            36571                       # Number of vector rename lookups
system.cpu.rob.rob_reads                      6147239                       # The number of ROB reads
system.cpu.rob.rob_writes                     7242948                       # The number of ROB writes
system.cpu.timesIdled                            1484                       # Number of times that the entire CPU went into an idle state and unscheduled itself
system.cpu.vec_regfile_reads                    31965                       # number of vector regfile reads
system.cpu.vec_regfile_writes                   10057                       # number of vector regfile writes
system.cpu.workload.numSyscalls                   109                       # Number of system calls
system.membus.snoop_filter.hit_multi_requests            0                       # Number of requests hitting in the snoop filter with multiple (>1) holders of the requested data.
system.membus.snoop_filter.hit_multi_snoops            0                       # Number of snoops hitting in the snoop filter with multiple (>1) holders of the requested data.
system.membus.snoop_filter.hit_single_requests          432                       # Number of requests hitting in the snoop filter with a single holder of the requested data.
system.membus.snoop_filter.hit_single_snoops            0                       # Number of snoops hitting in the snoop filter with a single holder of the requested data.
system.membus.snoop_filter.tot_requests         27822                       # Total number of requests made to the snoop filter.
system.membus.snoop_filter.tot_snoops               0                       # Total number of snoops made to the snoop filter.
system.tol2bus.snoop_filter.hit_multi_requests            1                       # Number of requests hitting in the snoop filter with multiple (>1) holders of the requested data.
system.tol2bus.snoop_filter.hit_multi_snoops            0                       # Number of snoops hitting in the snoop filter with multiple (>1) holders of the requested data.
system.tol2bus.snoop_filter.hit_single_requests        29331                       # Number of requests hitting in the snoop filter with a single holder of the requested data.
system.tol2bus.snoop_filter.hit_single_snoops           33                       # Number of snoops hitting in the snoop filter with a single holder of the requested data.
system.tol2bus.snoop_filter.tot_requests        59685                       # Total number of requests made to the snoop filter.
system.tol2bus.snoop_filter.tot_snoops             33                       # Total number of snoops made to the snoop filter.
system.membus.trans_dist::ReadResp               1878                       # Transaction distribution
system.membus.trans_dist::WritebackDirty          327                       # Transaction distribution
system.membus.trans_dist::CleanEvict              105                       # Transaction distribution
system.membus.trans_dist::ReadExReq              8907                       # Transaction distribution
system.membus.trans_dist::ReadExResp             8907                       # Transaction distribution
system.membus.trans_dist::ReadSharedReq          1879                       # Transaction distribution
system.membus.trans_dist::InvalidateReq         16604                       # Transaction distribution
system.membus.pkt_count_system.l2.mem_side::system.mem_ctrls.port        38607                       # Packet count per connected master and slave (bytes)
system.membus.pkt_count::total                  38607                       # Packet count per connected master and slave (bytes)
system.membus.pkt_size_system.l2.mem_side::system.mem_ctrls.port       711168                       # Cumulative packet size per connected master and slave (bytes)
system.membus.pkt_size::total                  711168                       # Cumulative packet size per connected master and slave (bytes)
system.membus.snoops                                0                       # Total snoops (count)
system.membus.snoopTraffic                          0                       # Total snoop traffic (bytes)
system.membus.snoop_fanout::samples             27390                       # Request fanout histogram
system.membus.snoop_fanout::mean                    0                       # Request fanout histogram
system.membus.snoop_fanout::stdev                   0                       # Request fanout histogram
system.membus.snoop_fanout::underflows              0      0.00%      0.00% # Request fanout histogram
system.membus.snoop_fanout::0                   27390    100.00%    100.00% # Request fanout histogram
system.membus.snoop_fanout::1                       0      0.00%    100.00% # Request fanout histogram
system.membus.snoop_fanout::overflows               0      0.00%    100.00% # Request fanout histogram
system.membus.snoop_fanout::min_value               0                       # Request fanout histogram
system.membus.snoop_fanout::max_value               0                       # Request fanout histogram
system.membus.snoop_fanout::total               27390                       # Request fanout histogram
system.membus.reqLayer0.occupancy            32211000                       # Layer occupancy (ticks)
system.membus.reqLayer0.utilization               2.2                       # Layer utilization (%)
system.membus.respLayer1.occupancy           57206750                       # Layer occupancy (ticks)
system.membus.respLayer1.utilization              3.9                       # Layer utilization (%)
system.membus.power_state.pwrStateResidencyTicks::UNDEFINED   1455066500                       # Cumulative time (in ticks) in various power states
system.tol2bus.trans_dist::ReadResp              4270                       # Transaction distribution
system.tol2bus.trans_dist::WritebackDirty        26778                       # Transaction distribution
system.tol2bus.trans_dist::WritebackClean         1981                       # Transaction distribution
system.tol2bus.trans_dist::CleanEvict            1037                       # Transaction distribution
system.tol2bus.trans_dist::ReadExReq             9239                       # Transaction distribution
system.tol2bus.trans_dist::ReadExResp            9239                       # Transaction distribution
system.tol2bus.trans_dist::ReadCleanReq          2491                       # Transaction distribution
system.tol2bus.trans_dist::ReadSharedReq         1781                       # Transaction distribution
system.tol2bus.trans_dist::InvalidateReq        16843                       # Transaction distribution
system.tol2bus.trans_dist::InvalidateResp        16843                       # Transaction distribution
system.tol2bus.pkt_count_system.cpu.icache.mem_side::system.l2.cpu_side         6962                       # Packet count per connected master and slave (bytes)
system.tol2bus.pkt_count_system.cpu.dcache.mem_side::system.l2.cpu_side        83075                       # Packet count per connected master and slave (bytes)
system.tol2bus.pkt_count::total                 90037                       # Packet count per connected master and slave (bytes)
system.tol2bus.pkt_size_system.cpu.icache.mem_side::system.l2.cpu_side       286144                       # Cumulative packet size per connected master and slave (bytes)
system.tol2bus.pkt_size_system.cpu.dcache.mem_side::system.l2.cpu_side      2398080                       # Cumulative packet size per connected master and slave (bytes)
system.tol2bus.pkt_size::total                2684224                       # Cumulative packet size per connected master and slave (bytes)
system.tol2bus.snoops                             465                       # Total snoops (count)
system.tol2bus.snoopTraffic                     20928                       # Total snoop traffic (bytes)
system.tol2bus.snoop_fanout::samples            30819                       # Request fanout histogram
system.tol2bus.snoop_fanout::mean            0.001103                       # Request fanout histogram
system.tol2bus.snoop_fanout::stdev           0.033197                       # Request fanout histogram
system.tol2bus.snoop_fanout::underflows             0      0.00%      0.00% # Request fanout histogram
system.tol2bus.snoop_fanout::0                  30785     99.89%     99.89% # Request fanout histogram
system.tol2bus.snoop_fanout::1                     34      0.11%    100.00% # Request fanout histogram
system.tol2bus.snoop_fanout::2                      0      0.00%    100.00% # Request fanout histogram
system.tol2bus.snoop_fanout::overflows              0      0.00%    100.00% # Request fanout histogram
system.tol2bus.snoop_fanout::min_value              0                       # Request fanout histogram
system.tol2bus.snoop_fanout::max_value              1                       # Request fanout histogram
system.tol2bus.snoop_fanout::total              30819                       # Request fanout histogram
system.tol2bus.reqLayer0.occupancy           58274500                       # Layer occupancy (ticks)
system.tol2bus.reqLayer0.utilization              4.0                       # Layer utilization (%)
system.tol2bus.respLayer1.occupancy          24950000                       # Layer occupancy (ticks)
system.tol2bus.respLayer1.utilization             1.7                       # Layer utilization (%)
system.tol2bus.respLayer0.occupancy           3735000                       # Layer occupancy (ticks)
system.tol2bus.respLayer0.utilization             0.3                       # Layer utilization (%)
system.tol2bus.power_state.pwrStateResidencyTicks::UNDEFINED   1455066500                       # Cumulative time (in ticks) in various power states
system.voltage_domain.voltage                       1                       # Voltage in Volts
system.clk_domain.clock                          1000                       # Clock period in ticks
system.l2.demand_hits::.cpu.inst                 1232                       # number of demand (read+write) hits
system.l2.demand_hits::.cpu.data                 1492                       # number of demand (read+write) hits
system.l2.demand_hits::total                     2724                       # number of demand (read+write) hits
system.l2.overall_hits::.cpu.inst                1232                       # number of overall hits
system.l2.overall_hits::.cpu.data                1492                       # number of overall hits
system.l2.overall_hits::total                    2724                       # number of overall hits
system.l2.demand_misses::.cpu.inst               1259                       # number of demand (read+write) misses
system.l2.demand_misses::.cpu.data               9528                       # number of demand (read+write) misses
system.l2.demand_misses::total                  10787                       # number of demand (read+write) misses
system.l2.overall_misses::.cpu.inst              1259                       # number of overall misses
system.l2.overall_misses::.cpu.data              9528                       # number of overall misses
system.l2.overall_misses::total                 10787                       # number of overall misses
system.l2.demand_miss_latency::.cpu.inst     99012000                       # number of demand (read+write) miss cycles
system.l2.demand_miss_latency::.cpu.data    741929500                       # number of demand (read+write) miss cycles
system.l2.demand_miss_latency::total        840941500                       # number of demand (read+write) miss cycles
system.l2.overall_miss_latency::.cpu.inst     99012000                       # number of overall miss cycles
system.l2.overall_miss_latency::.cpu.data    741929500                       # number of overall miss cycles
system.l2.overall_miss_latency::total       840941500                       # number of overall miss cycles
system.l2.demand_accesses::.cpu.inst             2491                       # number of demand (read+write) accesses
system.l2.demand_accesses::.cpu.data            11020                       # number of demand (read+write) accesses
system.l2.demand_accesses::total                13511                       # number of demand (read+write) accesses
system.l2.overall_accesses::.cpu.inst            2491                       # number of overall (read+write) accesses
system.l2.overall_accesses::.cpu.data           11020                       # number of overall (read+write) accesses
system.l2.overall_accesses::total               13511                       # number of overall (read+write) accesses
system.l2.demand_miss_rate::.cpu.inst        0.505420                       # miss rate for demand accesses
system.l2.demand_miss_rate::.cpu.data        0.864610                       # miss rate for demand accesses
system.l2.demand_miss_rate::total            0.798386                       # miss rate for demand accesses
[...]
system.cpu.dcache.demand_accesses::.cpu.data       916533                       # number of demand (read+write) accesses
system.cpu.dcache.demand_accesses::total       916533                       # number of demand (read+write) accesses
system.cpu.dcache.overall_accesses::.cpu.data       916591                       # number of overall (read+write) accesses
system.cpu.dcache.overall_accesses::total       916591                       # number of overall (read+write) accesses
system.cpu.dcache.demand_miss_rate::.cpu.data     0.059832                       # miss rate for demand accesses
system.cpu.dcache.demand_miss_rate::total     0.059832                       # miss rate for demand accesses
system.cpu.dcache.overall_miss_rate::.cpu.data     0.059836                       # miss rate for overall accesses
system.cpu.dcache.overall_miss_rate::total     0.059836                       # miss rate for overall accesses
system.cpu.dcache.demand_avg_miss_latency::.cpu.data 57391.748113                       # average overall miss latency
system.cpu.dcache.demand_avg_miss_latency::total 57391.748113                       # average overall miss latency
system.cpu.dcache.overall_avg_miss_latency::.cpu.data 57384.423065                       # average overall miss latency
system.cpu.dcache.overall_avg_miss_latency::total 57384.423065                       # average overall miss latency
system.cpu.dcache.blocked_cycles::no_mshrs       267739                       # number of cycles access was blocked
system.cpu.dcache.blocked_cycles::no_targets            0                       # number of cycles access was blocked
system.cpu.dcache.blocked::no_mshrs             16374                       # number of cycles access was blocked
system.cpu.dcache.blocked::no_targets               0                       # number of cycles access was blocked
system.cpu.dcache.avg_blocked_cycles::no_mshrs    16.351472                       # average number of cycles each access was blocked
system.cpu.dcache.avg_blocked_cycles::no_targets          nan                       # average number of cycles each access was blocked
system.cpu.dcache.writebacks::.writebacks        26451                       # number of writebacks
system.cpu.dcache.writebacks::total             26451                       # number of writebacks
system.cpu.dcache.demand_mshr_hits::.cpu.data        26981                       # number of demand (read+write) MSHR hits
system.cpu.dcache.demand_mshr_hits::total        26981                       # number of demand (read+write) MSHR hits
system.cpu.dcache.overall_mshr_hits::.cpu.data        26981                       # number of overall MSHR hits
system.cpu.dcache.overall_mshr_hits::total        26981                       # number of overall MSHR hits
system.cpu.dcache.demand_mshr_misses::.cpu.data        27857                       # number of demand (read+write) MSHR misses
system.cpu.dcache.demand_mshr_misses::total        27857                       # number of demand (read+write) MSHR misses
system.cpu.dcache.overall_mshr_misses::.cpu.data        27860                       # number of overall MSHR misses
system.cpu.dcache.overall_mshr_misses::total        27860                       # number of overall MSHR misses
system.cpu.dcache.demand_mshr_miss_latency::.cpu.data   1306665073                       # number of demand (read+write) MSHR miss cycles
system.cpu.dcache.demand_mshr_miss_latency::total   1306665073                       # number of demand (read+write) MSHR miss cycles
system.cpu.dcache.overall_mshr_miss_latency::.cpu.data   1306949073                       # number of overall MSHR miss cycles
system.cpu.dcache.overall_mshr_miss_latency::total   1306949073                       # number of overall MSHR miss cycles
system.cpu.dcache.demand_mshr_miss_rate::.cpu.data     0.030394                       # mshr miss rate for demand accesses
system.cpu.dcache.demand_mshr_miss_rate::total     0.030394                       # mshr miss rate for demand accesses
system.cpu.dcache.overall_mshr_miss_rate::.cpu.data     0.030395                       # mshr miss rate for overall accesses
system.cpu.dcache.overall_mshr_miss_rate::total     0.030395                       # mshr miss rate for overall accesses
system.cpu.dcache.demand_avg_mshr_miss_latency::.cpu.data 46906.166242                       # average overall mshr miss latency
system.cpu.dcache.demand_avg_mshr_miss_latency::total 46906.166242                       # average overall mshr miss latency
system.cpu.dcache.overall_avg_mshr_miss_latency::.cpu.data 46911.309153                       # average overall mshr miss latency
system.cpu.dcache.overall_avg_mshr_miss_latency::total 46911.309153                       # average overall mshr miss latency
system.cpu.dcache.replacements                  27350                       # number of replacements
system.cpu.dcache.ReadReq_hits::.cpu.data       478105                       # number of ReadReq hits
system.cpu.dcache.ReadReq_hits::total          478105                       # number of ReadReq hits
system.cpu.dcache.ReadReq_misses::.cpu.data         3903                       # number of ReadReq misses
system.cpu.dcache.ReadReq_misses::total          3903                       # number of ReadReq misses
system.cpu.dcache.ReadReq_miss_latency::.cpu.data    151849000                       # number of ReadReq miss cycles
system.cpu.dcache.ReadReq_miss_latency::total    151849000                       # number of ReadReq miss cycles
system.cpu.dcache.ReadReq_accesses::.cpu.data       482008                       # number of ReadReq accesses(hits+misses)
system.cpu.dcache.ReadReq_accesses::total       482008                       # number of ReadReq accesses(hits+misses)
system.cpu.dcache.ReadReq_miss_rate::.cpu.data     0.008097                       # miss rate for ReadReq accesses
system.cpu.dcache.ReadReq_miss_rate::total     0.008097                       # miss rate for ReadReq accesses
system.cpu.dcache.ReadReq_avg_miss_latency::.cpu.data 38905.713554                       # average ReadReq miss latency
system.cpu.dcache.ReadReq_avg_miss_latency::total 38905.713554                       # average ReadReq miss latency
system.cpu.dcache.ReadReq_mshr_hits::.cpu.data         2127                       # number of ReadReq MSHR hits
system.cpu.dcache.ReadReq_mshr_hits::total         2127                       # number of ReadReq MSHR hits
system.cpu.dcache.ReadReq_mshr_misses::.cpu.data         1776                       # number of ReadReq MSHR misses
system.cpu.dcache.ReadReq_mshr_misses::total         1776                       # number of ReadReq MSHR misses
system.cpu.dcache.ReadReq_mshr_miss_latency::.cpu.data     64451500                       # number of ReadReq MSHR miss cycles
system.cpu.dcache.ReadReq_mshr_miss_latency::total     64451500                       # number of ReadReq MSHR miss cycles
system.cpu.dcache.ReadReq_mshr_miss_rate::.cpu.data     0.003685                       # mshr miss rate for ReadReq accesses
system.cpu.dcache.ReadReq_mshr_miss_rate::total     0.003685                       # mshr miss rate for ReadReq accesses
system.cpu.dcache.ReadReq_avg_mshr_miss_latency::.cpu.data 36290.259009                       # average ReadReq mshr miss latency
system.cpu.dcache.ReadReq_avg_mshr_miss_latency::total 36290.259009                       # average ReadReq mshr miss latency
system.cpu.dcache.WriteReq_hits::.cpu.data       383510                       # number of WriteReq hits
system.cpu.dcache.WriteReq_hits::total         383510                       # number of WriteReq hits
system.cpu.dcache.WriteReq_misses::.cpu.data        34097                       # number of WriteReq misses
system.cpu.dcache.WriteReq_misses::total        34097                       # number of WriteReq misses
system.cpu.dcache.WriteReq_miss_latency::.cpu.data   2446388545                       # number of WriteReq miss cycles
system.cpu.dcache.WriteReq_miss_latency::total   2446388545                       # number of WriteReq miss cycles
system.cpu.dcache.WriteReq_accesses::.cpu.data       417607                       # number of WriteReq accesses(hits+misses)
system.cpu.dcache.WriteReq_accesses::total       417607                       # number of WriteReq accesses(hits+misses)
system.cpu.dcache.WriteReq_miss_rate::.cpu.data     0.081649                       # miss rate for WriteReq accesses
system.cpu.dcache.WriteReq_miss_rate::total     0.081649                       # miss rate for WriteReq accesses
system.cpu.dcache.WriteReq_avg_miss_latency::.cpu.data 71747.911693                       # average WriteReq miss latency
system.cpu.dcache.WriteReq_avg_miss_latency::total 71747.911693                       # average WriteReq miss latency
system.cpu.dcache.WriteReq_mshr_hits::.cpu.data        24854                       # number of WriteReq MSHR hits
system.cpu.dcache.WriteReq_mshr_hits::total        24854                       # number of WriteReq MSHR hits
system.cpu.dcache.WriteReq_mshr_misses::.cpu.data         9243                       # number of WriteReq MSHR misses
system.cpu.dcache.WriteReq_mshr_misses::total         9243                       # number of WriteReq MSHR misses
system.cpu.dcache.WriteReq_mshr_miss_latency::.cpu.data    710040435                       # number of WriteReq MSHR miss cycles
system.cpu.dcache.WriteReq_mshr_miss_latency::total    710040435                       # number of WriteReq MSHR miss cycles
system.cpu.dcache.WriteReq_mshr_miss_rate::.cpu.data     0.022133                       # mshr miss rate for WriteReq accesses
system.cpu.dcache.WriteReq_mshr_miss_rate::total     0.022133                       # mshr miss rate for WriteReq accesses
system.cpu.dcache.WriteReq_avg_mshr_miss_latency::.cpu.data 76819.261603                       # average WriteReq mshr miss latency
system.cpu.dcache.WriteReq_avg_mshr_miss_latency::total 76819.261603                       # average WriteReq mshr miss latency
system.cpu.dcache.SoftPFReq_hits::.cpu.data           51                       # number of SoftPFReq hits
system.cpu.dcache.SoftPFReq_hits::total            51                       # number of SoftPFReq hits
system.cpu.dcache.SoftPFReq_misses::.cpu.data            7                       # number of SoftPFReq misses
system.cpu.dcache.SoftPFReq_misses::total            7                       # number of SoftPFReq misses
system.cpu.dcache.SoftPFReq_accesses::.cpu.data           58                       # number of SoftPFReq accesses(hits+misses)
system.cpu.dcache.SoftPFReq_accesses::total           58                       # number of SoftPFReq accesses(hits+misses)
system.cpu.dcache.SoftPFReq_miss_rate::.cpu.data     0.120690                       # miss rate for SoftPFReq accesses
system.cpu.dcache.SoftPFReq_miss_rate::total     0.120690                       # miss rate for SoftPFReq accesses
system.cpu.dcache.SoftPFReq_mshr_misses::.cpu.data            3                       # number of SoftPFReq MSHR misses
system.cpu.dcache.SoftPFReq_mshr_misses::total            3                       # number of SoftPFReq MSHR misses
system.cpu.dcache.SoftPFReq_mshr_miss_latency::.cpu.data       284000                       # number of SoftPFReq MSHR miss cycles
system.cpu.dcache.SoftPFReq_mshr_miss_latency::total       284000                       # number of SoftPFReq MSHR miss cycles
system.cpu.dcache.SoftPFReq_mshr_miss_rate::.cpu.data     0.051724                       # mshr miss rate for SoftPFReq accesses
system.cpu.dcache.SoftPFReq_mshr_miss_rate::total     0.051724                       # mshr miss rate for SoftPFReq accesses
system.cpu.dcache.SoftPFReq_avg_mshr_miss_latency::.cpu.data 94666.666667                       # average SoftPFReq mshr miss latency
system.cpu.dcache.SoftPFReq_avg_mshr_miss_latency::total 94666.666667                       # average SoftPFReq mshr miss latency
system.cpu.dcache.WriteLineReq_hits::.cpu.data           80                       # number of WriteLineReq hits
system.cpu.dcache.WriteLineReq_hits::total           80                       # number of WriteLineReq hits
system.cpu.dcache.WriteLineReq_misses::.cpu.data        16838                       # number of WriteLineReq misses
system.cpu.dcache.WriteLineReq_misses::total        16838                       # number of WriteLineReq misses
system.cpu.dcache.WriteLineReq_miss_latency::.cpu.data    549011138                       # number of WriteLineReq miss cycles
system.cpu.dcache.WriteLineReq_miss_latency::total    549011138                       # number of WriteLineReq miss cycles
system.cpu.dcache.WriteLineReq_accesses::.cpu.data        16918                       # number of WriteLineReq accesses(hits+misses)
system.cpu.dcache.WriteLineReq_accesses::total        16918                       # number of WriteLineReq accesses(hits+misses)
system.cpu.dcache.WriteLineReq_miss_rate::.cpu.data     0.995271                       # miss rate for WriteLineReq accesses
system.cpu.dcache.WriteLineReq_miss_rate::total     0.995271                       # miss rate for WriteLineReq accesses
system.cpu.dcache.WriteLineReq_avg_miss_latency::.cpu.data 32605.483905                       # average WriteLineReq miss latency
system.cpu.dcache.WriteLineReq_avg_miss_latency::total 32605.483905                       # average WriteLineReq miss latency
system.cpu.dcache.WriteLineReq_mshr_misses::.cpu.data        16838                       # number of WriteLineReq MSHR misses
system.cpu.dcache.WriteLineReq_mshr_misses::total        16838                       # number of WriteLineReq MSHR misses
system.cpu.dcache.WriteLineReq_mshr_miss_latency::.cpu.data    532173138                       # number of WriteLineReq MSHR miss cycles
system.cpu.dcache.WriteLineReq_mshr_miss_latency::total    532173138                       # number of WriteLineReq MSHR miss cycles
system.cpu.dcache.WriteLineReq_mshr_miss_rate::.cpu.data     0.995271                       # mshr miss rate for WriteLineReq accesses
system.cpu.dcache.WriteLineReq_mshr_miss_rate::total     0.995271                       # mshr miss rate for WriteLineReq accesses
system.cpu.dcache.WriteLineReq_avg_mshr_miss_latency::.cpu.data 31605.483905                       # average WriteLineReq mshr miss latency
system.cpu.dcache.WriteLineReq_avg_mshr_miss_latency::total 31605.483905                       # average WriteLineReq mshr miss latency
system.cpu.dcache.LoadLockedReq_hits::.cpu.data          296                       # number of LoadLockedReq hits
system.cpu.dcache.LoadLockedReq_hits::total          296                       # number of LoadLockedReq hits
system.cpu.dcache.LoadLockedReq_misses::.cpu.data            7                       # number of LoadLockedReq misses
system.cpu.dcache.LoadLockedReq_misses::total            7                       # number of LoadLockedReq misses
system.cpu.dcache.LoadLockedReq_miss_latency::.cpu.data       346000                       # number of LoadLockedReq miss cycles
system.cpu.dcache.LoadLockedReq_miss_latency::total       346000                       # number of LoadLockedReq miss cycles
system.cpu.dcache.LoadLockedReq_accesses::.cpu.data          303                       # number of LoadLockedReq accesses(hits+misses)
system.cpu.dcache.LoadLockedReq_accesses::total          303                       # number of LoadLockedReq accesses(hits+misses)
system.cpu.dcache.LoadLockedReq_miss_rate::.cpu.data     0.023102                       # miss rate for LoadLockedReq accesses
system.cpu.dcache.LoadLockedReq_miss_rate::total     0.023102                       # miss rate for LoadLockedReq accesses
system.cpu.dcache.LoadLockedReq_avg_miss_latency::.cpu.data 49428.571429                       # average LoadLockedReq miss latency
system.cpu.dcache.LoadLockedReq_avg_miss_latency::total 49428.571429                       # average LoadLockedReq miss latency
system.cpu.dcache.LoadLockedReq_mshr_hits::.cpu.data            4                       # number of LoadLockedReq MSHR hits
system.cpu.dcache.LoadLockedReq_mshr_hits::total            4                       # number of LoadLockedReq MSHR hits
system.cpu.dcache.LoadLockedReq_mshr_misses::.cpu.data            3                       # number of LoadLockedReq MSHR misses
system.cpu.dcache.LoadLockedReq_mshr_misses::total            3                       # number of LoadLockedReq MSHR misses
system.cpu.dcache.LoadLockedReq_mshr_miss_latency::.cpu.data       123000                       # number of LoadLockedReq MSHR miss cycles
system.cpu.dcache.LoadLockedReq_mshr_miss_latency::total       123000                       # number of LoadLockedReq MSHR miss cycles
system.cpu.dcache.LoadLockedReq_mshr_miss_rate::.cpu.data     0.009901                       # mshr miss rate for LoadLockedReq accesses
system.cpu.dcache.LoadLockedReq_mshr_miss_rate::total     0.009901                       # mshr miss rate for LoadLockedReq accesses
system.cpu.dcache.LoadLockedReq_avg_mshr_miss_latency::.cpu.data        41000                       # average LoadLockedReq mshr miss latency
system.cpu.dcache.LoadLockedReq_avg_mshr_miss_latency::total        41000                       # average LoadLockedReq mshr miss latency
system.cpu.dcache.StoreCondReq_hits::.cpu.data          278                       # number of StoreCondReq hits
system.cpu.dcache.StoreCondReq_hits::total          278                       # number of StoreCondReq hits
system.cpu.dcache.StoreCondReq_accesses::.cpu.data          278                       # number of StoreCondReq accesses(hits+misses)
system.cpu.dcache.StoreCondReq_accesses::total          278                       # number of StoreCondReq accesses(hits+misses)
system.cpu.dcache.power_state.pwrStateResidencyTicks::UNDEFINED   1455066500                       # Cumulative time (in ticks) in various power states
system.cpu.dcache.tags.tagsinuse           502.004745                       # Cycle average of tags in use
system.cpu.dcache.tags.total_refs              890182                       # Total number of references to valid blocks.
system.cpu.dcache.tags.sampled_refs             27862                       # Sample count of references to valid blocks.
system.cpu.dcache.tags.avg_refs             31.949681                       # Average number of references to valid blocks.
system.cpu.dcache.tags.warmup_cycle            176500                       # Cycle when the warmup percentage was hit.
system.cpu.dcache.tags.occ_blocks::.cpu.data   502.004745                       # Average occupied blocks per requestor
system.cpu.dcache.tags.occ_percent::.cpu.data     0.980478                       # Average percentage of cache occupancy
system.cpu.dcache.tags.occ_percent::total     0.980478                       # Average percentage of cache occupancy
system.cpu.dcache.tags.occ_task_id_blocks::1024          512                       # Occupied blocks per task id
system.cpu.dcache.tags.age_task_id_blocks_1024::0           60                       # Occupied blocks per task id
system.cpu.dcache.tags.age_task_id_blocks_1024::1          357                       # Occupied blocks per task id
system.cpu.dcache.tags.age_task_id_blocks_1024::2           95                       # Occupied blocks per task id
system.cpu.dcache.tags.occ_task_id_percent::1024            1                       # Percentage of cache occupancy per task id
system.cpu.dcache.tags.tag_accesses           1862206                       # Number of tag accesses
system.cpu.dcache.tags.data_accesses          1862206                       # Number of data accesses
system.cpu.dcache.tags.power_state.pwrStateResidencyTicks::UNDEFINED   1455066500                       # Cumulative time (in ticks) in various power states
system.cpu.power_state.pwrStateResidencyTicks::ON   1455066500                       # Cumulative time (in ticks) in various power states

---------- End Simulation Statistics   ----------
