
---------- Begin Simulation Statistics ----------
final_tick                                 2912117000                       # Number of ticks from beginning of simulation (restored from checkpoints and never reset)
host_inst_rate                                  48211                       # Simulator instruction rate (inst/s)
host_mem_usage                                 864504                       # Number of bytes of host memory used
host_op_rate                                    55056                       # Simulator op (including micro ops) rate (op/s)
host_seconds                                   199.52                       # Real time elapsed on the host
host_tick_rate                               14595504                       # Simulator tick rate (ticks/s)
sim_freq                                 1000000000000                       # Frequency of simulated ticks
sim_insts                                     9618594                       # Number of instructions simulated
sim_ops                                      10984903                       # Number of ops (including micro ops) simulated
sim_seconds                                  0.002912                       # Number of seconds simulated
sim_ticks                                  2912117000                       # Number of ticks simulated
system.cpu.branchPred.BTBCorrect                    0                       # Number of correct BTB predictions (this stat may not work properly.
system.cpu.branchPred.BTBHitPct             99.424723                       # BTB Hit Percentage
system.cpu.branchPred.BTBHits                 1135489                       # Number of BTB hits
system.cpu.branchPred.BTBLookups              1142059                       # Number of BTB lookups
system.cpu.branchPred.RASInCorrect                 24                       # Number of incorrect RAS predictions.
system.cpu.branchPred.condIncorrect             32468                       # Number of conditional branches incorrect
system.cpu.branchPred.condPredicted           1732604                       # Number of conditional branches predicted
system.cpu.branchPred.indirectHits              77158                       # Number of indirect target hits.
system.cpu.branchPred.indirectLookups           79107                       # Number of indirect predictor lookups.
system.cpu.branchPred.indirectMisses             1949                       # Number of indirect misses.
system.cpu.branchPred.lookups                 2640347                       # Number of BP lookups
system.cpu.branchPred.loop_predictor.loopPredictorCorrect         5966                       # Number of times the loop predictor is the provider and the prediction is correct
system.cpu.branchPred.loop_predictor.loopPredictorWrong          660                       # Number of times the loop predictor is the provider and the prediction is wrong
system.cpu.branchPred.statistical_corrector.scPredictorCorrect         3749                       # Number of time the SC predictor is the provider and the prediction is correct
system.cpu.branchPred.statistical_corrector.scPredictorWrong         6012                       # Number of time the SC predictor is the provider and the prediction is wrong
system.cpu.branchPred.tage.bimodalAltMatchProviderCorrect         2066                       # Number of times TAGE Alt Match is the bimodal and it is the provider and the prediction is correct
system.cpu.branchPred.tage.bimodalAltMatchProviderWrong          460                       # Number of times TAGE Alt Match is the bimodal and it is the provider and the prediction is wrong
system.cpu.branchPred.tage.tageAltMatchProvider::0        38992                       # TAGE provider for alt match
system.cpu.branchPred.tage.tageAltMatchProvider::1            0                       # TAGE provider for alt match
system.cpu.branchPred.tage.tageAltMatchProvider::2         6084                       # TAGE provider for alt match
system.cpu.branchPred.tage.tageAltMatchProvider::3            0                       # TAGE provider for alt match
system.cpu.branchPred.tage.tageAltMatchProvider::4         5606                       # TAGE provider for alt match
system.cpu.branchPred.tage.tageAltMatchProvider::5            0                       # TAGE provider for alt match
system.cpu.branchPred.tage.tageAltMatchProvider::6         3080                       # TAGE provider for alt match
system.cpu.branchPred.tage.tageAltMatchProvider::7        10196                       # TAGE provider for alt match
system.cpu.branchPred.tage.tageAltMatchProvider::8         6622                       # TAGE provider for alt match
system.cpu.branchPred.tage.tageAltMatchProvider::9         4694                       # TAGE provider for alt match
system.cpu.branchPred.tage.tageAltMatchProvider::10         4376                       # TAGE provider for alt match
system.cpu.branchPred.tage.tageAltMatchProvider::11         8997                       # TAGE provider for alt match
system.cpu.branchPred.tage.tageAltMatchProvider::12        10907                       # TAGE provider for alt match
system.cpu.branchPred.tage.tageAltMatchProvider::13         9515                       # TAGE provider for alt match
system.cpu.branchPred.tage.tageAltMatchProvider::14         7366                       # TAGE provider for alt match
system.cpu.branchPred.tage.tageAltMatchProvider::15        11735                       # TAGE provider for alt match
system.cpu.branchPred.tage.tageAltMatchProvider::16         9693                       # TAGE provider for alt match
system.cpu.branchPred.tage.tageAltMatchProvider::17        15107                       # TAGE provider for alt match
system.cpu.branchPred.tage.tageAltMatchProvider::18         7746                       # TAGE provider for alt match
system.cpu.branchPred.tage.tageAltMatchProvider::19        16337                       # TAGE provider for alt match
system.cpu.branchPred.tage.tageAltMatchProvider::20         7329                       # TAGE provider for alt match
system.cpu.branchPred.tage.tageAltMatchProvider::21            0                       # TAGE provider for alt match
system.cpu.branchPred.tage.tageAltMatchProvider::22        18861                       # TAGE provider for alt match
system.cpu.branchPred.tage.tageAltMatchProvider::23            0                       # TAGE provider for alt match
system.cpu.branchPred.tage.tageAltMatchProvider::24        15990                       # TAGE provider for alt match
system.cpu.branchPred.tage.tageAltMatchProvider::25            0                       # TAGE provider for alt match
system.cpu.branchPred.tage.tageAltMatchProvider::26        10356                       # TAGE provider for alt match
system.cpu.branchPred.tage.tageAltMatchProvider::27            0                       # TAGE provider for alt match
system.cpu.branchPred.tage.tageAltMatchProvider::28         2610                       # TAGE provider for alt match
system.cpu.branchPred.tage.tageAltMatchProvider::29            0                       # TAGE provider for alt match
system.cpu.branchPred.tage.tageAltMatchProvider::30            0                       # TAGE provider for alt match
system.cpu.branchPred.tage.tageAltMatchProviderCorrect         8025                       # Number of times TAGE Alt Match is the provider and the prediction is correct
system.cpu.branchPred.tage.tageAltMatchProviderWouldHaveHit         3686                       # Number of times TAGE Longest Match is the provider, the prediction is wrong and Alt Match prediction was correct
system.cpu.branchPred.tage.tageAltMatchProviderWrong         4071                       # Number of times TAGE Alt Match is the provider and the prediction is wrong
system.cpu.branchPred.tage.tageBimodalProviderCorrect      1334591                       # Number of times there are no hits on the TAGE tables and the bimodal prediction is correct
system.cpu.branchPred.tage.tageBimodalProviderWrong         4218                       # Number of times there are no hits on the TAGE tables and the bimodal prediction is wrong
system.cpu.branchPred.tage.tageLongestMatchProvider::0            0                       # TAGE provider for longest match
system.cpu.branchPred.tage.tageLongestMatchProvider::1            0                       # TAGE provider for longest match
system.cpu.branchPred.tage.tageLongestMatchProvider::2         8776                       # TAGE provider for longest match
system.cpu.branchPred.tage.tageLongestMatchProvider::3            0                       # TAGE provider for longest match
system.cpu.branchPred.tage.tageLongestMatchProvider::4         2386                       # TAGE provider for longest match
system.cpu.branchPred.tage.tageLongestMatchProvider::5            0                       # TAGE provider for longest match
system.cpu.branchPred.tage.tageLongestMatchProvider::6         8122                       # TAGE provider for longest match
system.cpu.branchPred.tage.tageLongestMatchProvider::7         6506                       # TAGE provider for longest match
system.cpu.branchPred.tage.tageLongestMatchProvider::8         8444                       # TAGE provider for longest match
system.cpu.branchPred.tage.tageLongestMatchProvider::9         1906                       # TAGE provider for longest match
system.cpu.branchPred.tage.tageLongestMatchProvider::10         8836                       # TAGE provider for longest match
system.cpu.branchPred.tage.tageLongestMatchProvider::11         8473                       # TAGE provider for longest match
system.cpu.branchPred.tage.tageLongestMatchProvider::12         7038                       # TAGE provider for longest match
system.cpu.branchPred.tage.tageLongestMatchProvider::13        11401                       # TAGE provider for longest match
system.cpu.branchPred.tage.tageLongestMatchProvider::14         7217                       # TAGE provider for longest match
system.cpu.branchPred.tage.tageLongestMatchProvider::15        13334                       # TAGE provider for longest match
system.cpu.branchPred.tage.tageLongestMatchProvider::16         4940                       # TAGE provider for longest match
system.cpu.branchPred.tage.tageLongestMatchProvider::17        15961                       # TAGE provider for longest match
system.cpu.branchPred.tage.tageLongestMatchProvider::18         9427                       # TAGE provider for longest match
system.cpu.branchPred.tage.tageLongestMatchProvider::19        11559                       # TAGE provider for longest match
system.cpu.branchPred.tage.tageLongestMatchProvider::20        13998                       # TAGE provider for longest match
system.cpu.branchPred.tage.tageLongestMatchProvider::21            0                       # TAGE provider for longest match
system.cpu.branchPred.tage.tageLongestMatchProvider::22        25415                       # TAGE provider for longest match
system.cpu.branchPred.tage.tageLongestMatchProvider::23            0                       # TAGE provider for longest match
system.cpu.branchPred.tage.tageLongestMatchProvider::24        14938                       # TAGE provider for longest match
system.cpu.branchPred.tage.tageLongestMatchProvider::25            0                       # TAGE provider for longest match
system.cpu.branchPred.tage.tageLongestMatchProvider::26        23406                       # TAGE provider for longest match
system.cpu.branchPred.tage.tageLongestMatchProvider::27            0                       # TAGE provider for longest match
system.cpu.branchPred.tage.tageLongestMatchProvider::28        15362                       # TAGE provider for longest match
system.cpu.branchPred.tage.tageLongestMatchProvider::29            0                       # TAGE provider for longest match
system.cpu.branchPred.tage.tageLongestMatchProvider::30         4754                       # TAGE provider for longest match
system.cpu.branchPred.tage.tageLongestMatchProviderCorrect       208172                       # Number of times TAGE Longest Match is the provider and the prediction is correct
system.cpu.branchPred.tage.tageLongestMatchProviderWouldHaveHit         2267                       # Number of times TAGE Alt Match is the provider, the prediction is wrong and Longest Match prediction was correct
system.cpu.branchPred.tage.tageLongestMatchProviderWrong        11931                       # Number of times TAGE Longest Match is the provider and the prediction is wrong
system.cpu.branchPred.usedRAS                  347923                       # Number of times the RAS was used to get a target.
system.cpu.branchPred.wormholepredictor.whPredictorCorrect         3267                       # Number of time the WH predictor is the provider and the prediction is correct
system.cpu.branchPred.wormholepredictor.whPredictorWrong           58                       # Number of time the WH predictor is the provider and the prediction is wrong
system.cpu.branchPredindirectMispredicted          636                       # Number of mispredicted indirect branches.
system.cpu.cc_regfile_reads                   4463599                       # number of cc regfile reads
system.cpu.cc_regfile_writes                  3672469                       # number of cc regfile writes
system.cpu.commit.amos                              0                       # Number of atomic instructions committed
system.cpu.commit.branchMispredicts             29611                       # The number of times a branch was mispredicted
system.cpu.commit.branches                    2418252                       # Number of branches committed
system.cpu.commit.bw_lim_events                519854                       # number cycles where commit BW limit reached
system.cpu.commit.commitNonSpecStalls             329                       # The number of times commit has been forced to stall to communicate backwards
system.cpu.commit.commitSquashedInsts          845796                       # The number of squashed insts skipped by commit
system.cpu.commit.committedInsts              9622724                       # Number of instructions committed
system.cpu.commit.committedOps               10989033                       # Number of ops (including micro ops) committed
system.cpu.commit.committed_per_cycle::samples      5517848                       # Number of insts commited each cycle
system.cpu.commit.committed_per_cycle::mean     1.991543                       # Number of insts commited each cycle
system.cpu.commit.committed_per_cycle::stdev     2.587482                       # Number of insts commited each cycle
system.cpu.commit.committed_per_cycle::underflows            0      0.00%      0.00% # Number of insts commited each cycle
system.cpu.commit.committed_per_cycle::0      2445360     44.32%     44.32% # Number of insts commited each cycle
system.cpu.commit.committed_per_cycle::1       854529     15.49%     59.80% # Number of insts commited each cycle
system.cpu.commit.committed_per_cycle::2       570374     10.34%     70.14% # Number of insts commited each cycle
system.cpu.commit.committed_per_cycle::3       407252      7.38%     77.52% # Number of insts commited each cycle
system.cpu.commit.committed_per_cycle::4       263670      4.78%     82.30% # Number of insts commited each cycle
system.cpu.commit.committed_per_cycle::5       231223      4.19%     86.49% # Number of insts commited each cycle
system.cpu.commit.committed_per_cycle::6       176729      3.20%     89.69% # Number of insts commited each cycle
system.cpu.commit.committed_per_cycle::7        48857      0.89%     90.58% # Number of insts commited each cycle
system.cpu.commit.committed_per_cycle::8       519854      9.42%    100.00% # Number of insts commited each cycle
system.cpu.commit.committed_per_cycle::overflows            0      0.00%    100.00% # Number of insts commited each cycle
system.cpu.commit.committed_per_cycle::min_value            0                       # Number of insts commited each cycle
system.cpu.commit.committed_per_cycle::max_value            8                       # Number of insts commited each cycle
system.cpu.commit.committed_per_cycle::total      5517848                       # Number of insts commited each cycle
system.cpu.commit.fp_insts                          0                       # Number of committed floating point instructions.
system.cpu.commit.function_calls               322761                       # Number of function calls committed.
system.cpu.commit.int_insts                   9549622                       # Number of committed integer instructions.
system.cpu.commit.loads                       1247647                       # Number of loads committed
system.cpu.commit.membars                         270                       # Number of memory barriers committed
system.cpu.commit.op_class_0::No_OpClass          589      0.01%      0.01% # Class of committed instruction
system.cpu.commit.op_class_0::IntAlu          8387308     76.32%     76.33% # Class of committed instruction
system.cpu.commit.op_class_0::IntMult           68608      0.62%     76.95% # Class of committed instruction
system.cpu.commit.op_class_0::IntDiv                9      0.00%     76.95% # Class of committed instruction
system.cpu.commit.op_class_0::FloatAdd           7468      0.07%     77.02% # Class of committed instruction
system.cpu.commit.op_class_0::FloatCmp           9555      0.09%     77.11% # Class of committed instruction
system.cpu.commit.op_class_0::FloatCvt          48762      0.44%     77.55% # Class of committed instruction
system.cpu.commit.op_class_0::FloatMult         43570      0.40%     77.95% # Class of committed instruction
system.cpu.commit.op_class_0::FloatMultAcc        20577      0.19%     78.14% # Class of committed instruction
system.cpu.commit.op_class_0::FloatDiv          20138      0.18%     78.32% # Class of committed instruction
system.cpu.commit.op_class_0::FloatMisc         29626      0.27%     78.59% # Class of committed instruction
system.cpu.commit.op_class_0::FloatSqrt          2058      0.02%     78.61% # Class of committed instruction
system.cpu.commit.op_class_0::SimdAdd            1298      0.01%     78.62% # Class of committed instruction
system.cpu.commit.op_class_0::SimdAddAcc            0      0.00%     78.62% # Class of committed instruction
system.cpu.commit.op_class_0::SimdAlu            3092      0.03%     78.65% # Class of committed instruction
system.cpu.commit.op_class_0::SimdCmp            2365      0.02%     78.67% # Class of committed instruction
system.cpu.commit.op_class_0::SimdCvt               5      0.00%     78.67% # Class of committed instruction
system.cpu.commit.op_class_0::SimdMisc           1936      0.02%     78.69% # Class of committed instruction
system.cpu.commit.op_class_0::SimdMult              0      0.00%     78.69% # Class of committed instruction
system.cpu.commit.op_class_0::SimdMultAcc            0      0.00%     78.69% # Class of committed instruction
system.cpu.commit.op_class_0::SimdShift             0      0.00%     78.69% # Class of committed instruction
system.cpu.commit.op_class_0::SimdShiftAcc            0      0.00%     78.69% # Class of committed instruction
system.cpu.commit.op_class_0::SimdDiv               0      0.00%     78.69% # Class of committed instruction
system.cpu.commit.op_class_0::SimdSqrt              0      0.00%     78.69% # Class of committed instruction
system.cpu.commit.op_class_0::SimdFloatAdd            0      0.00%     78.69% # Class of committed instruction
system.cpu.commit.op_class_0::SimdFloatAlu            0      0.00%     78.69% # Class of committed instruction
system.cpu.commit.op_class_0::SimdFloatCmp            0      0.00%     78.69% # Class of committed instruction
system.cpu.commit.op_class_0::SimdFloatCvt            0      0.00%     78.69% # Class of committed instruction
system.cpu.commit.op_class_0::SimdFloatDiv            0      0.00%     78.69% # Class of committed instruction
system.cpu.commit.op_class_0::SimdFloatMisc            0      0.00%     78.69% # Class of committed instruction
system.cpu.commit.op_class_0::SimdFloatMult            0      0.00%     78.69% # Class of committed instruction
system.cpu.commit.op_class_0::SimdFloatMultAcc            0      0.00%     78.69% # Class of committed instruction
system.cpu.commit.op_class_0::SimdFloatSqrt            0      0.00%     78.69% # Class of committed instruction
system.cpu.commit.op_class_0::SimdReduceAdd            0      0.00%     78.69% # Class of committed instruction
system.cpu.commit.op_class_0::SimdReduceAlu            0      0.00%     78.69% # Class of committed instruction
system.cpu.commit.op_class_0::SimdReduceCmp            0      0.00%     78.69% # Class of committed instruction
system.cpu.commit.op_class_0::SimdFloatReduceAdd            0      0.00%     78.69% # Class of committed instruction
system.cpu.commit.op_class_0::SimdFloatReduceCmp            0      0.00%     78.69% # Class of committed instruction
system.cpu.commit.op_class_0::SimdAes               0      0.00%     78.69% # Class of committed instruction
system.cpu.commit.op_class_0::SimdAesMix            0      0.00%     78.69% # Class of committed instruction
system.cpu.commit.op_class_0::SimdSha1Hash            0      0.00%     78.69% # Class of committed instruction
system.cpu.commit.op_class_0::SimdSha1Hash2            0      0.00%     78.69% # Class of committed instruction
system.cpu.commit.op_class_0::SimdSha256Hash            0      0.00%     78.69% # Class of committed instruction
system.cpu.commit.op_class_0::SimdSha256Hash2            0      0.00%     78.69% # Class of committed instruction
system.cpu.commit.op_class_0::SimdShaSigma2            0      0.00%     78.69% # Class of committed instruction
system.cpu.commit.op_class_0::SimdShaSigma3            0      0.00%     78.69% # Class of committed instruction
system.cpu.commit.op_class_0::SimdPredAlu            0      0.00%     78.69% # Class of committed instruction
system.cpu.commit.op_class_0::MemRead         1247647     11.35%     90.04% # Class of committed instruction
system.cpu.commit.op_class_0::MemWrite        1094422      9.96%    100.00% # Class of committed instruction
system.cpu.commit.op_class_0::FloatMemRead            0      0.00%    100.00% # Class of committed instruction
system.cpu.commit.op_class_0::FloatMemWrite            0      0.00%    100.00% # Class of committed instruction
system.cpu.commit.op_class_0::IprAccess             0      0.00%    100.00% # Class of committed instruction
system.cpu.commit.op_class_0::InstPrefetch            0      0.00%    100.00% # Class of committed instruction
system.cpu.commit.op_class_0::total          10989033                       # Class of committed instruction
system.cpu.commit.refs                        2342069                       # Number of memory references committed
system.cpu.commit.swp_count                         0                       # Number of s/w prefetches committed
system.cpu.commit.vec_insts                    256840                       # Number of committed Vector instructions.
system.cpu.committedInsts                     9618594                       # Number of Instructions Simulated
system.cpu.committedOps                      10984903                       # Number of Ops (including micro ops) Simulated
system.cpu.cpi                               0.605518                       # CPI: Cycles Per Instruction
system.cpu.cpi_total                         0.605518                       # CPI: Total CPI of All Threads
system.cpu.decode.BlockedCycles               1311761                       # Number of cycles decode is blocked
system.cpu.decode.BranchMispred                  2925                       # Number of times decode detected a branch misprediction
system.cpu.decode.BranchResolved              1115524                       # Number of times decode resolved a branch
system.cpu.decode.DecodedInsts               12074290                       # Number of instructions handled by decode
system.cpu.decode.IdleCycles                  1867951                       # Number of cycles decode is idle
system.cpu.decode.RunCycles                   2235110                       # Number of cycles decode is running
system.cpu.decode.SquashCycles                  29990                       # Number of cycles decode is squashing
system.cpu.decode.SquashedInsts                  9937                       # Number of squashed instructions handled by decode
system.cpu.decode.UnblockCycles                193751                       # Number of cycles decode is unblocking
system.cpu.dtb.accesses                             0                       # DTB accesses
system.cpu.dtb.align_faults                         0                       # Number of TLB faults due to alignment restrictions
system.cpu.dtb.domain_faults                        0                       # Number of TLB faults due to domain restrictions
system.cpu.dtb.flush_entries                        0                       # Number of entries that have been flushed from TLB
system.cpu.dtb.flush_tlb                            0                       # Number of times complete TLB was flushed
system.cpu.dtb.flush_tlb_asid                       0                       # Number of times TLB was flushed by ASID
system.cpu.dtb.flush_tlb_mva                        0                       # Number of times TLB was flushed by MVA
system.cpu.dtb.flush_tlb_mva_asid                   0                       # Number of times TLB was flushed by MVA & ASID
system.cpu.dtb.hits                                 0                       # DTB hits
system.cpu.dtb.inst_accesses                        0                       # ITB inst accesses
system.cpu.dtb.inst_hits                            0                       # ITB inst hits
system.cpu.dtb.inst_misses                          0                       # ITB inst misses
system.cpu.dtb.misses                               0                       # DTB misses
system.cpu.dtb.perms_faults                         0                       # Number of TLB faults due to permissions restrictions
system.cpu.dtb.prefetch_faults                      0                       # Number of TLB faults due to prefetch
system.cpu.dtb.read_accesses                        0                       # DTB read accesses
system.cpu.dtb.read_hits                            0                       # DTB read hits
system.cpu.dtb.read_misses                          0                       # DTB read misses
system.cpu.dtb.stage2_mmu.stage2_tlb.accesses            0                       # DTB accesses
system.cpu.dtb.stage2_mmu.stage2_tlb.align_faults            0                       # Number of TLB faults due to alignment restrictions
system.cpu.dtb.stage2_mmu.stage2_tlb.domain_faults            0                       # Number of TLB faults due to domain restrictions
system.cpu.dtb.stage2_mmu.stage2_tlb.flush_entries            0                       # Number of entries that have been flushed from TLB
system.cpu.dtb.stage2_mmu.stage2_tlb.flush_tlb            0                       # Number of times complete TLB was flushed
system.cpu.dtb.stage2_mmu.stage2_tlb.flush_tlb_asid            0                       # Number of times TLB was flushed by ASID
system.cpu.dtb.stage2_mmu.stage2_tlb.flush_tlb_mva            0                       # Number of times TLB was flushed by MVA
system.cpu.dtb.stage2_mmu.stage2_tlb.flush_tlb_mva_asid            0                       # Number of times TLB was flushed by MVA & ASID
system.cpu.dtb.stage2_mmu.stage2_tlb.hits            0                       # DTB hits
system.cpu.dtb.stage2_mmu.stage2_tlb.inst_accesses            0                       # ITB inst accesses
system.cpu.dtb.stage2_mmu.stage2_tlb.inst_hits            0                       # ITB inst hits
system.cpu.dtb.stage2_mmu.stage2_tlb.inst_misses            0                       # ITB inst misses
system.cpu.dtb.stage2_mmu.stage2_tlb.misses            0                       # DTB misses
system.cpu.dtb.stage2_mmu.stage2_tlb.perms_faults            0                       # Number of TLB faults due to permissions restrictions
system.cpu.dtb.stage2_mmu.stage2_tlb.prefetch_faults            0                       # Number of TLB faults due to prefetch
system.cpu.dtb.stage2_mmu.stage2_tlb.read_accesses            0                       # DTB read accesses
system.cpu.dtb.stage2_mmu.stage2_tlb.read_hits            0                       # DTB read hits
system.cpu.dtb.stage2_mmu.stage2_tlb.read_misses            0                       # DTB read misses
system.cpu.dtb.stage2_mmu.stage2_tlb.walker.walkRequestOrigin_Requested::Data            0                       # Table walker requests started/completed, data/inst
system.cpu.dtb.stage2_mmu.stage2_tlb.walker.walkRequestOrigin_Requested::Inst            0                       # Table walker requests started/completed, data/inst
system.cpu.dtb.stage2_mmu.stage2_tlb.walker.walkRequestOrigin_Requested::total            0                       # Table walker requests started/completed, data/inst
system.cpu.dtb.stage2_mmu.stage2_tlb.walker.walkRequestOrigin_Completed::Data            0                       # Table walker requests started/completed, data/inst
system.cpu.dtb.stage2_mmu.stage2_tlb.walker.walkRequestOrigin_Completed::Inst            0                       # Table walker requests started/completed, data/inst
system.cpu.dtb.stage2_mmu.stage2_tlb.walker.walkRequestOrigin_Completed::total            0                       # Table walker requests started/completed, data/inst
system.cpu.dtb.stage2_mmu.stage2_tlb.walker.walkRequestOrigin::total            0                       # Table walker requests started/completed, data/inst
system.cpu.dtb.stage2_mmu.stage2_tlb.walker.walks            0                       # Table walker walks requested
system.cpu.dtb.stage2_mmu.stage2_tlb.write_accesses            0                       # DTB write accesses
system.cpu.dtb.stage2_mmu.stage2_tlb.write_hits            0                       # DTB write hits
system.cpu.dtb.stage2_mmu.stage2_tlb.write_misses            0                       # DTB write misses
system.cpu.dtb.walker.walkRequestOrigin_Requested::Data            0                       # Table walker requests started/completed, data/inst
system.cpu.dtb.walker.walkRequestOrigin_Requested::Inst            0                       # Table walker requests started/completed, data/inst
system.cpu.dtb.walker.walkRequestOrigin_Requested::total            0                       # Table walker requests started/completed, data/inst
system.cpu.dtb.walker.walkRequestOrigin_Completed::Data            0                       # Table walker requests started/completed, data/inst
system.cpu.dtb.walker.walkRequestOrigin_Completed::Inst            0                       # Table walker requests started/completed, data/inst
system.cpu.dtb.walker.walkRequestOrigin_Completed::total            0                       # Table walker requests started/completed, data/inst
system.cpu.dtb.walker.walkRequestOrigin::total            0                       # Table walker requests started/completed, data/inst
system.cpu.dtb.walker.walks                         0                       # Table walker walks requested
system.cpu.dtb.write_accesses                       0                       # DTB write accesses
system.cpu.dtb.write_hits                           0                       # DTB write hits
system.cpu.dtb.write_misses                         0                       # DTB write misses
system.cpu.fetch.Branches                     2640347                       # Number of branches that fetch encountered
system.cpu.fetch.CacheLines                   1971158                       # Number of cache lines fetched
system.cpu.fetch.Cycles                       3483391                       # Number of cycles fetch has run and was not squashing or blocked
system.cpu.fetch.IcacheSquashes                  9650                       # Number of outstanding Icache misses that were squashed
system.cpu.fetch.IcacheWaitRetryStallCycles           61                       # Number of stall cycles due to full MSHR
system.cpu.fetch.Insts                       10939607                       # Number of instructions fetch has processed
system.cpu.fetch.MiscStallCycles                   21                       # Number of cycles fetch has spent waiting on interrupts, or bad addresses, or out of MSHRs
system.cpu.fetch.SquashCycles                   65694                       # Number of cycles fetch has spent squashing
system.cpu.fetch.branchRate                  0.453338                       # Number of branch fetches per cycle
system.cpu.fetch.icacheStallCycles            2122243                       # Number of cycles fetch is stalled on an Icache miss
system.cpu.fetch.predictedBranches            1560570                       # Number of branches that fetch has predicted taken
system.cpu.fetch.rate                        1.878291                       # Number of inst fetches per cycle
system.cpu.fetch.rateDist::samples            5638563                       # Number of instructions fetched each cycle (Total)
system.cpu.fetch.rateDist::mean              2.209744                       # Number of instructions fetched each cycle (Total)
system.cpu.fetch.rateDist::stdev             2.841377                       # Number of instructions fetched each cycle (Total)
system.cpu.fetch.rateDist::underflows               0      0.00%      0.00% # Number of instructions fetched each cycle (Total)
system.cpu.fetch.rateDist::0                  2961005     52.51%     52.51% # Number of instructions fetched each cycle (Total)
system.cpu.fetch.rateDist::1                   188187      3.34%     55.85% # Number of instructions fetched each cycle (Total)
system.cpu.fetch.rateDist::2                   486542      8.63%     64.48% # Number of instructions fetched each cycle (Total)
system.cpu.fetch.rateDist::3                   437030      7.75%     72.23% # Number of instructions fetched each cycle (Total)
system.cpu.fetch.rateDist::4                   165379      2.93%     75.16% # Number of instructions fetched each cycle (Total)
system.cpu.fetch.rateDist::5                   385331      6.83%     82.00% # Number of instructions fetched each cycle (Total)
system.cpu.fetch.rateDist::6                   282343      5.01%     87.00% # Number of instructions fetched each cycle (Total)
system.cpu.fetch.rateDist::7                   156775      2.78%     89.79% # Number of instructions fetched each cycle (Total)
system.cpu.fetch.rateDist::8                   575971     10.21%    100.00% # Number of instructions fetched each cycle (Total)
system.cpu.fetch.rateDist::overflows                0      0.00%    100.00% # Number of instructions fetched each cycle (Total)
system.cpu.fetch.rateDist::min_value                0                       # Number of instructions fetched each cycle (Total)
system.cpu.fetch.rateDist::max_value                8                       # Number of instructions fetched each cycle (Total)
system.cpu.fetch.rateDist::total              5638563                       # Number of instructions fetched each cycle (Total)
system.cpu.idleCycles                          185672                       # Total number of cycles that the CPU has spent unscheduled due to idling
system.cpu.iew.branchMispredicts                31998                       # Number of branch mispredicts detected at execute
system.cpu.iew.exec_branches                  2488487                       # Number of branches executed
system.cpu.iew.exec_nop                          5773                       # number of nop insts executed
system.cpu.iew.exec_rate                     1.993867                       # Inst execution rate
system.cpu.iew.exec_refs                      2540462                       # number of memory reference insts executed
system.cpu.iew.exec_stores                    1140181                       # Number of stores executed
system.cpu.iew.exec_swp                             0                       # number of swp insts executed
system.cpu.iew.iewBlockCycles                  331276                       # Number of cycles IEW is blocking
system.cpu.iew.iewDispLoadInsts               1343422                       # Number of dispatched load instructions
system.cpu.iew.iewDispNonSpecInsts                413                       # Number of dispatched non-speculative instructions
system.cpu.iew.iewDispSquashedInsts             12273                       # Number of squashed instructions skipped by dispatch
system.cpu.iew.iewDispStoreInsts              1193032                       # Number of dispatched store instructions
system.cpu.iew.iewDispatchedInsts            11835821                       # Number of instructions dispatched to IQ
system.cpu.iew.iewExecLoadInsts               1400281                       # Number of load instructions executed
system.cpu.iew.iewExecSquashedInsts             46009                       # Number of squashed instructions skipped in execute
system.cpu.iew.iewExecutedInsts              11612750                       # Number of executed instructions
system.cpu.iew.iewIQFullEvents                   7736                       # Number of times the IQ has become full, causing a stall
system.cpu.iew.iewIdleCycles                        0                       # Number of cycles IEW is idle
system.cpu.iew.iewLSQFullEvents                 13962                       # Number of times the LSQ has become full, causing a stall
system.cpu.iew.iewSquashCycles                  29990                       # Number of cycles IEW is squashing
system.cpu.iew.iewUnblockCycles                 24084                       # Number of cycles IEW is unblocking
system.cpu.iew.lsq.thread0.blockedLoads             0                       # Number of blocked loads due to partial load-store forwarding
system.cpu.iew.lsq.thread0.cacheBlocked          2450                       # Number of times an access to memory failed due to the cache being blocked
system.cpu.iew.lsq.thread0.forwLoads            36893                       # Number of loads that had data forwarded from stores
system.cpu.iew.lsq.thread0.ignoredResponses           33                       # Number of memory responses ignored because the instruction is squashed
system.cpu.iew.lsq.thread0.invAddrLoads             0                       # Number of loads ignored due to an invalid address
system.cpu.iew.lsq.thread0.invAddrSwpfs             0                       # Number of software prefetches ignored due to an invalid address
system.cpu.iew.lsq.thread0.memOrderViolation          318                       # Number of memory ordering violations
system.cpu.iew.lsq.thread0.rescheduledLoads        67979                       # Number of loads that were rescheduled
system.cpu.iew.lsq.thread0.squashedLoads        95775                       # Number of loads squashed
system.cpu.iew.lsq.thread0.squashedStores        98610                       # Number of stores squashed
system.cpu.iew.memOrderViolationEvents            318                       # Number of memory order violations
system.cpu.iew.predictedNotTakenIncorrect        19787                       # Number of branches that were predicted not taken incorrectly
system.cpu.iew.predictedTakenIncorrect          12211                       # Number of branches that were predicted taken incorrectly
system.cpu.iew.wb_consumers                  11509981                       # num instructions consuming a value
system.cpu.iew.wb_count                      11492898                       # cumulative count of insts written-back
system.cpu.iew.wb_fanout                     0.520294                       # average fanout of values written-back
system.cpu.iew.wb_producers                   5988573                       # num instructions producing a value
system.cpu.iew.wb_rate                       1.973289                       # insts written-back per cycle
system.cpu.iew.wb_sent                       11501451                       # cumulative count of insts sent to commit
system.cpu.int_regfile_reads                 13020812                       # number of integer regfile reads
system.cpu.int_regfile_writes                 8373338                       # number of integer regfile writes
system.cpu.ipc                               1.651478                       # IPC: Instructions Per Cycle
system.cpu.ipc_total                         1.651478                       # IPC: Total IPC of All Threads
system.cpu.iq.FU_type_0::No_OpClass               601      0.01%      0.01% # Type of FU issued
system.cpu.iq.FU_type_0::IntAlu               8801954     75.50%     75.50% # Type of FU issued
system.cpu.iq.FU_type_0::IntMult                84912      0.73%     76.23% # Type of FU issued
system.cpu.iq.FU_type_0::IntDiv                    13      0.00%     76.23% # Type of FU issued
system.cpu.iq.FU_type_0::FloatAdd                7490      0.06%     76.29% # Type of FU issued
system.cpu.iq.FU_type_0::FloatCmp               12059      0.10%     76.40% # Type of FU issued
system.cpu.iq.FU_type_0::FloatCvt               54315      0.47%     76.86% # Type of FU issued
system.cpu.iq.FU_type_0::FloatMult              46352      0.40%     77.26% # Type of FU issued
system.cpu.iq.FU_type_0::FloatMultAcc           20588      0.18%     77.44% # Type of FU issued
system.cpu.iq.FU_type_0::FloatDiv               22770      0.20%     77.63% # Type of FU issued
system.cpu.iq.FU_type_0::FloatMisc              36674      0.31%     77.95% # Type of FU issued
system.cpu.iq.FU_type_0::FloatSqrt               3303      0.03%     77.98% # Type of FU issued
system.cpu.iq.FU_type_0::SimdAdd                 1335      0.01%     77.99% # Type of FU issued
system.cpu.iq.FU_type_0::SimdAddAcc                 0      0.00%     77.99% # Type of FU issued
system.cpu.iq.FU_type_0::SimdAlu                 3146      0.03%     78.01% # Type of FU issued
system.cpu.iq.FU_type_0::SimdCmp                 2413      0.02%     78.04% # Type of FU issued
system.cpu.iq.FU_type_0::SimdCvt                    5      0.00%     78.04% # Type of FU issued
system.cpu.iq.FU_type_0::SimdMisc                1974      0.02%     78.05% # Type of FU issued
system.cpu.iq.FU_type_0::SimdMult                   0      0.00%     78.05% # Type of FU issued
system.cpu.iq.FU_type_0::SimdMultAcc                0      0.00%     78.05% # Type of FU issued
system.cpu.iq.FU_type_0::SimdShift                  0      0.00%     78.05% # Type of FU issued
system.cpu.iq.FU_type_0::SimdShiftAcc               0      0.00%     78.05% # Type of FU issued
system.cpu.iq.FU_type_0::SimdDiv                    0      0.00%     78.05% # Type of FU issued
system.cpu.iq.FU_type_0::SimdSqrt                   0      0.00%     78.05% # Type of FU issued
system.cpu.iq.FU_type_0::SimdFloatAdd               0      0.00%     78.05% # Type of FU issued
system.cpu.iq.FU_type_0::SimdFloatAlu               0      0.00%     78.05% # Type of FU issued
system.cpu.iq.FU_type_0::SimdFloatCmp               0      0.00%     78.05% # Type of FU issued
system.cpu.iq.FU_type_0::SimdFloatCvt               0      0.00%     78.05% # Type of FU issued
system.cpu.iq.FU_type_0::SimdFloatDiv               0      0.00%     78.05% # Type of FU issued
system.cpu.iq.FU_type_0::SimdFloatMisc              0      0.00%     78.05% # Type of FU issued
system.cpu.iq.FU_type_0::SimdFloatMult              0      0.00%     78.05% # Type of FU issued
system.cpu.iq.FU_type_0::SimdFloatMultAcc            0      0.00%     78.05% # Type of FU issued
system.cpu.iq.FU_type_0::SimdFloatSqrt              0      0.00%     78.05% # Type of FU issued
system.cpu.iq.FU_type_0::SimdReduceAdd              0      0.00%     78.05% # Type of FU issued
system.cpu.iq.FU_type_0::SimdReduceAlu              0      0.00%     78.05% # Type of FU issued
system.cpu.iq.FU_type_0::SimdReduceCmp              0      0.00%     78.05% # Type of FU issued
system.cpu.iq.FU_type_0::SimdFloatReduceAdd            0      0.00%     78.05% # Type of FU issued
system.cpu.iq.FU_type_0::SimdFloatReduceCmp            0      0.00%     78.05% # Type of FU issued
system.cpu.iq.FU_type_0::SimdAes                    0      0.00%     78.05% # Type of FU issued
system.cpu.iq.FU_type_0::SimdAesMix                 0      0.00%     78.05% # Type of FU issued
system.cpu.iq.FU_type_0::SimdSha1Hash               0      0.00%     78.05% # Type of FU issued
system.cpu.iq.FU_type_0::SimdSha1Hash2              0      0.00%     78.05% # Type of FU issued
system.cpu.iq.FU_type_0::SimdSha256Hash             0      0.00%     78.05% # Type of FU issued
system.cpu.iq.FU_type_0::SimdSha256Hash2            0      0.00%     78.05% # Type of FU issued
system.cpu.iq.FU_type_0::SimdShaSigma2              0      0.00%     78.05% # Type of FU issued
system.cpu.iq.FU_type_0::SimdShaSigma3              0      0.00%     78.05% # Type of FU issued
system.cpu.iq.FU_type_0::SimdPredAlu                0      0.00%     78.05% # Type of FU issued
system.cpu.iq.FU_type_0::MemRead              1408873     12.08%     90.14% # Type of FU issued
system.cpu.iq.FU_type_0::MemWrite             1149982      9.86%    100.00% # Type of FU issued
system.cpu.iq.FU_type_0::FloatMemRead               0      0.00%    100.00% # Type of FU issued
system.cpu.iq.FU_type_0::FloatMemWrite              0      0.00%    100.00% # Type of FU issued
system.cpu.iq.FU_type_0::IprAccess                  0      0.00%    100.00% # Type of FU issued
system.cpu.iq.FU_type_0::InstPrefetch               0      0.00%    100.00% # Type of FU issued
system.cpu.iq.FU_type_0::total               11658759                       # Type of FU issued
system.cpu.iq.fp_alu_accesses                       0                       # Number of floating point alu accesses
system.cpu.iq.fp_inst_queue_reads                   0                       # Number of floating instruction queue reads
system.cpu.iq.fp_inst_queue_wakeup_accesses            0                       # Number of floating instruction queue wakeup accesses
system.cpu.iq.fp_inst_queue_writes                  0                       # Number of floating instruction queue writes
system.cpu.iq.fu_busy_cnt                       16348                       # FU busy when requested
system.cpu.iq.fu_busy_rate                   0.001402                       # FU busy rate (busy events/executed inst)
system.cpu.iq.fu_full::No_OpClass                   0      0.00%      0.00% # attempts to use FU when none available
system.cpu.iq.fu_full::IntAlu                       0      0.00%      0.00% # attempts to use FU when none available
system.cpu.iq.fu_full::IntMult                     15      0.09%      0.09% # attempts to use FU when none available
system.cpu.iq.fu_full::IntDiv                       0      0.00%      0.09% # attempts to use FU when none available
system.cpu.iq.fu_full::FloatAdd                     0      0.00%      0.09% # attempts to use FU when none available
system.cpu.iq.fu_full::FloatCmp                     0      0.00%      0.09% # attempts to use FU when none available
system.cpu.iq.fu_full::FloatCvt                     0      0.00%      0.09% # attempts to use FU when none available
system.cpu.iq.fu_full::FloatMult                 9144     55.93%     56.03% # attempts to use FU when none available
system.cpu.iq.fu_full::FloatMultAcc               729      4.46%     60.48% # attempts to use FU when none available
system.cpu.iq.fu_full::FloatDiv                  1175      7.19%     67.67% # attempts to use FU when none available
system.cpu.iq.fu_full::FloatMisc                 5285     32.33%    100.00% # attempts to use FU when none available
system.cpu.iq.fu_full::FloatSqrt                    0      0.00%    100.00% # attempts to use FU when none available
system.cpu.iq.fu_full::SimdAdd                      0      0.00%    100.00% # attempts to use FU when none available
system.cpu.iq.fu_full::SimdAddAcc                   0      0.00%    100.00% # attempts to use FU when none available
system.cpu.iq.fu_full::SimdAlu                      0      0.00%    100.00% # attempts to use FU when none available
system.cpu.iq.fu_full::SimdCmp                      0      0.00%    100.00% # attempts to use FU when none available
system.cpu.iq.fu_full::SimdCvt                      0      0.00%    100.00% # attempts to use FU when none available
system.cpu.iq.fu_full::SimdMisc                     0      0.00%    100.00% # attempts to use FU when none available
system.cpu.iq.fu_full::SimdMult                     0      0.00%    100.00% # attempts to use FU when none available
system.cpu.iq.fu_full::SimdMultAcc                  0      0.00%    100.00% # attempts to use FU when none available
system.cpu.iq.fu_full::SimdShift                    0      0.00%    100.00% # attempts to use FU when none available
system.cpu.iq.fu_full::SimdShiftAcc                 0      0.00%    100.00% # attempts to use FU when none available
system.cpu.iq.fu_full::SimdDiv                      0      0.00%    100.00% # attempts to use FU when none available
system.cpu.iq.fu_full::SimdSqrt                     0      0.00%    100.00% # attempts to use FU when none available
system.cpu.iq.fu_full::SimdFloatAdd                 0      0.00%    100.00% # attempts to use FU when none available
system.cpu.iq.fu_full::SimdFloatAlu                 0      0.00%    100.00% # attempts to use FU when none available
system.cpu.iq.fu_full::SimdFloatCmp                 0      0.00%    100.00% # attempts to use FU when none available
system.cpu.iq.fu_full::SimdFloatCvt                 0      0.00%    100.00% # attempts to use FU when none available
system.cpu.iq.fu_full::SimdFloatDiv                 0      0.00%    100.00% # attempts to use FU when none available
system.cpu.iq.fu_full::SimdFloatMisc                0      0.00%    100.00% # attempts to use FU when none available
system.cpu.iq.fu_full::SimdFloatMult                0      0.00%    100.00% # attempts to use FU when none available
system.cpu.iq.fu_full::SimdFloatMultAcc             0      0.00%    100.00% # attempts to use FU when none available
system.cpu.iq.fu_full::SimdFloatSqrt                0      0.00%    100.00% # attempts to use FU when none available
system.cpu.iq.fu_full::SimdReduceAdd                0      0.00%    100.00% # attempts to use FU when none available
system.cpu.iq.fu_full::SimdReduceAlu                0      0.00%    100.00% # attempts to use FU when none available
system.cpu.iq.fu_full::SimdReduceCmp                0      0.00%    100.00% # attempts to use FU when none available
system.cpu.iq.fu_full::SimdFloatReduceAdd            0      0.00%    100.00% # attempts to use FU when none available
system.cpu.iq.fu_full::SimdFloatReduceCmp            0      0.00%    100.00% # attempts to use FU when none available
system.cpu.iq.fu_full::SimdAes                      0      0.00%    100.00% # attempts to use FU when none available
system.cpu.iq.fu_full::SimdAesMix                   0      0.00%    100.00% # attempts to use FU when none available
system.cpu.iq.fu_full::SimdSha1Hash                 0      0.00%    100.00% # attempts to use FU when none available
system.cpu.iq.fu_full::SimdSha1Hash2                0      0.00%    100.00% # attempts to use FU when none available
system.cpu.iq.fu_full::SimdSha256Hash               0      0.00%    100.00% # attempts to use FU when none available
system.cpu.iq.fu_full::SimdSha256Hash2              0      0.00%    100.00% # attempts to use FU when none available
system.cpu.iq.fu_full::SimdShaSigma2                0      0.00%    100.00% # attempts to use FU when none available
system.cpu.iq.fu_full::SimdShaSigma3                0      0.00%    100.00% # attempts to use FU when none available
system.cpu.iq.fu_full::SimdPredAlu                  0      0.00%    100.00% # attempts to use FU when none available
system.cpu.iq.fu_full::MemRead                      0      0.00%    100.00% # attempts to use FU when none available
system.cpu.iq.fu_full::MemWrite                     0      0.00%    100.00% # attempts to use FU when none available
system.cpu.iq.fu_full::FloatMemRead                 0      0.00%    100.00% # attempts to use FU when none available
system.cpu.iq.fu_full::FloatMemWrite                0      0.00%    100.00% # attempts to use FU when none available
system.cpu.iq.fu_full::IprAccess                    0      0.00%    100.00% # attempts to use FU when none available
system.cpu.iq.fu_full::InstPrefetch                 0      0.00%    100.00% # attempts to use FU when none available
system.cpu.iq.int_alu_accesses               11370931                       # Number of integer alu accesses
system.cpu.iq.int_inst_queue_reads           28414950                       # Number of integer instruction queue reads
system.cpu.iq.int_inst_queue_wakeup_accesses     11214931                       # Number of integer instruction queue wakeup accesses
system.cpu.iq.int_inst_queue_writes          12271179                       # Number of integer instruction queue writes
system.cpu.iq.iqInstsAdded                   11829635                       # Number of instructions added to the IQ (excludes non-spec)
system.cpu.iq.iqInstsIssued                  11658759                       # Number of instructions issued
system.cpu.iq.iqNonSpecInstsAdded                 413                       # Number of non-speculative instructions added to the IQ
system.cpu.iq.iqSquashedInstsExamined          845144                       # Number of squashed instructions iterated over during squash; mainly for profiling
system.cpu.iq.iqSquashedInstsIssued             34779                       # Number of squashed instructions issued
system.cpu.iq.iqSquashedNonSpecRemoved             84                       # Number of squashed non-spec instructions that were removed
system.cpu.iq.iqSquashedOperandsExamined       647916                       # Number of squashed operands that are examined and possibly removed from graph
system.cpu.iq.issued_per_cycle::samples       5638563                       # Number of insts issued each cycle
system.cpu.iq.issued_per_cycle::mean         2.067683                       # Number of insts issued each cycle
system.cpu.iq.issued_per_cycle::stdev        1.563821                       # Number of insts issued each cycle
system.cpu.iq.issued_per_cycle::underflows            0      0.00%      0.00% # Number of insts issued each cycle
system.cpu.iq.issued_per_cycle::0             1372340     24.34%     24.34% # Number of insts issued each cycle
system.cpu.iq.issued_per_cycle::1              959488     17.02%     41.36% # Number of insts issued each cycle
system.cpu.iq.issued_per_cycle::2              861175     15.27%     56.63% # Number of insts issued each cycle
system.cpu.iq.issued_per_cycle::3              805319     14.28%     70.91% # Number of insts issued each cycle
system.cpu.iq.issued_per_cycle::4             1640241     29.09%    100.00% # Number of insts issued each cycle
system.cpu.iq.issued_per_cycle::overflows            0      0.00%    100.00% # Number of insts issued each cycle
system.cpu.iq.issued_per_cycle::min_value            0                       # Number of insts issued each cycle
system.cpu.iq.issued_per_cycle::max_value            4                       # Number of insts issued each cycle
system.cpu.iq.issued_per_cycle::total         5638563                       # Number of insts issued each cycle
system.cpu.iq.rate                           2.001767                       # Inst issue rate
system.cpu.iq.vec_alu_accesses                 303575                       # Number of vector alu accesses
system.cpu.iq.vec_inst_queue_reads             592258                       # Number of vector instruction queue reads
system.cpu.iq.vec_inst_queue_wakeup_accesses       277967                       # Number of vector instruction queue wakeup accesses
system.cpu.iq.vec_inst_queue_writes            404320                       # Number of vector instruction queue writes
system.cpu.itb.accesses                             0                       # DTB accesses
system.cpu.itb.align_faults                         0                       # Number of TLB faults due to alignment restrictions
system.cpu.itb.domain_faults                        0                       # Number of TLB faults due to domain restrictions
system.cpu.itb.flush_entries                        0                       # Number of entries that have been flushed from TLB
system.cpu.itb.flush_tlb                            0                       # Number of times complete TLB was flushed
system.cpu.itb.flush_tlb_asid                       0                       # Number of times TLB was flushed by ASID
system.cpu.itb.flush_tlb_mva                        0                       # Number of times TLB was flushed by MVA
system.cpu.itb.flush_tlb_mva_asid                   0                       # Number of times TLB was flushed by MVA & ASID
system.cpu.itb.hits                                 0                       # DTB hits
system.cpu.itb.inst_accesses                        0                       # ITB inst accesses
system.cpu.itb.inst_hits                            0                       # ITB inst hits
system.cpu.itb.inst_misses                          0                       # ITB inst misses
system.cpu.itb.misses                               0                       # DTB misses
system.cpu.itb.perms_faults                         0                       # Number of TLB faults due to permissions restrictions
system.cpu.itb.prefetch_faults                      0                       # Number of TLB faults due to prefetch
system.cpu.itb.read_accesses                        0                       # DTB read accesses
system.cpu.itb.read_hits                            0                       # DTB read hits
system.cpu.itb.read_misses                          0                       # DTB read misses
system.cpu.itb.stage2_mmu.stage2_tlb.accesses            0                       # DTB accesses
system.cpu.itb.stage2_mmu.stage2_tlb.align_faults            0                       # Number of TLB faults due to alignment restrictions
system.cpu.itb.stage2_mmu.stage2_tlb.domain_faults            0                       # Number of TLB faults due to domain restrictions
system.cpu.itb.stage2_mmu.stage2_tlb.flush_entries            0                       # Number of entries that have been flushed from TLB
system.cpu.itb.stage2_mmu.stage2_tlb.flush_tlb            0                       # Number of times complete TLB was flushed
system.cpu.itb.stage2_mmu.stage2_tlb.flush_tlb_asid            0                       # Number of times TLB was flushed by ASID
system.cpu.itb.stage2_mmu.stage2_tlb.flush_tlb_mva            0                       # Number of times TLB was flushed by MVA
system.cpu.itb.stage2_mmu.stage2_tlb.flush_tlb_mva_asid            0                       # Number of times TLB was flushed by MVA & ASID
system.cpu.itb.stage2_mmu.stage2_tlb.hits            0                       # DTB hits
system.cpu.itb.stage2_mmu.stage2_tlb.inst_accesses            0                       # ITB inst accesses
system.cpu.itb.stage2_mmu.stage2_tlb.inst_hits            0                       # ITB inst hits
system.cpu.itb.stage2_mmu.stage2_tlb.inst_misses            0                       # ITB inst misses
system.cpu.itb.stage2_mmu.stage2_tlb.misses            0                       # DTB misses
system.cpu.itb.stage2_mmu.stage2_tlb.perms_faults            0                       # Number of TLB faults due to permissions restrictions
system.cpu.itb.stage2_mmu.stage2_tlb.prefetch_faults            0                       # Number of TLB faults due to prefetch
system.cpu.itb.stage2_mmu.stage2_tlb.read_accesses            0                       # DTB read accesses
system.cpu.itb.stage2_mmu.stage2_tlb.read_hits            0                       # DTB read hits
system.cpu.itb.stage2_mmu.stage2_tlb.read_misses            0                       # DTB read misses
system.cpu.itb.stage2_mmu.stage2_tlb.walker.walkRequestOrigin_Requested::Data            0                       # Table walker requests started/completed, data/inst
system.cpu.itb.stage2_mmu.stage2_tlb.walker.walkRequestOrigin_Requested::Inst            0                       # Table walker requests started/completed, data/inst
system.cpu.itb.stage2_mmu.stage2_tlb.walker.walkRequestOrigin_Requested::total            0                       # Table walker requests started/completed, data/inst
system.cpu.itb.stage2_mmu.stage2_tlb.walker.walkRequestOrigin_Completed::Data            0                       # Table walker requests started/completed, data/inst
system.cpu.itb.stage2_mmu.stage2_tlb.walker.walkRequestOrigin_Completed::Inst            0                       # Table walker requests started/completed, data/inst
system.cpu.itb.stage2_mmu.stage2_tlb.walker.walkRequestOrigin_Completed::total            0                       # Table walker requests started/completed, data/inst
system.cpu.itb.stage2_mmu.stage2_tlb.walker.walkRequestOrigin::total            0                       # Table walker requests started/completed, data/inst
system.cpu.itb.stage2_mmu.stage2_tlb.walker.walks            0                       # Table walker walks requested
system.cpu.itb.stage2_mmu.stage2_tlb.write_accesses            0                       # DTB write accesses
system.cpu.itb.stage2_mmu.stage2_tlb.write_hits            0                       # DTB write hits
system.cpu.itb.stage2_mmu.stage2_tlb.write_misses            0                       # DTB write misses
system.cpu.itb.walker.walkRequestOrigin_Requested::Data            0                       # Table walker requests started/completed, data/inst
system.cpu.itb.walker.walkRequestOrigin_Requested::Inst            0                       # Table walker requests started/completed, data/inst
system.cpu.itb.walker.walkRequestOrigin_Requested::total            0                       # Table walker requests started/completed, data/inst
system.cpu.itb.walker.walkRequestOrigin_Completed::Data            0                       # Table walker requests started/completed, data/inst
system.cpu.itb.walker.walkRequestOrigin_Completed::Inst            0                       # Table walker requests started/completed, data/inst
system.cpu.itb.walker.walkRequestOrigin_Completed::total            0                       # Table walker requests started/completed, data/inst
system.cpu.itb.walker.walkRequestOrigin::total            0                       # Table walker requests started/completed, data/inst
system.cpu.itb.walker.walks                         0                       # Table walker walks requested
system.cpu.itb.write_accesses                       0                       # DTB write accesses
system.cpu.itb.write_hits                           0                       # DTB write hits
system.cpu.itb.write_misses                         0                       # DTB write misses
system.cpu.memDep0.conflictingLoads            112916                       # Number of conflicting loads.
system.cpu.memDep0.conflictingStores            58317                       # Number of conflicting stores.
system.cpu.memDep0.insertedLoads              1343422                       # Number of loads inserted to the mem dependence unit.
system.cpu.memDep0.insertedStores             1193032                       # Number of stores inserted to the mem dependence unit.
system.cpu.misc_regfile_reads                 8322100                       # number of misc regfile reads
system.cpu.misc_regfile_writes                 154088                       # number of misc regfile writes
system.cpu.numCycles                          5824235                       # number of cpu cycles simulated
system.cpu.numWorkItemsCompleted                    0                       # number of work items this cpu completed
system.cpu.numWorkItemsStarted                      0                       # number of work items this cpu started
system.cpu.rename.BlockCycles                  425403                       # Number of cycles rename is blocking
system.cpu.rename.CommittedMaps              11888987                       # Number of HB maps that are committed
system.cpu.rename.IQFullEvents                 300661                       # Number of times rename has blocked due to IQ full
system.cpu.rename.IdleCycles                  1954978                       # Number of cycles rename is idle
system.cpu.rename.LQFullEvents                   1242                       # Number of times rename has blocked due to LQ full
system.cpu.rename.ROBFullEvents                   263                       # Number of times rename has blocked due to ROB full
system.cpu.rename.RenameLookups              19361388                       # Number of register rename lookups that rename has made
system.cpu.rename.RenamedInsts               11957774                       # Number of instructions processed by rename
system.cpu.rename.RenamedOperands            12933037                       # Number of destination operands rename has renamed
system.cpu.rename.RunCycles                   2337013                       # Number of cycles rename is running
system.cpu.rename.SQFullEvents                 132037                       # Number of times rename has blocked due to SQ full
system.cpu.rename.SquashCycles                  29990                       # Number of cycles rename is squashing
system.cpu.rename.UnblockCycles                483613                       # Number of cycles rename is unblocking
system.cpu.rename.UndoneMaps                  1044050                       # Number of HB maps that are undone due to squashing
system.cpu.rename.int_rename_lookups         13357210                       # Number of integer rename lookups
system.cpu.rename.serializeStallCycles         407566                       # count of cycles rename stalled for serializing inst
system.cpu.rename.serializingInsts              19356                       # count of serializing insts renamed
system.cpu.rename.skidInsts                    902074                       # count of insts added to the skid buffer
system.cpu.rename.tempSerializingInsts            441                       # count of temporary serializing insts renamed
system.cpu.rename.vec_rename_lookups           409242                       # Number of vector rename lookups
system.cpu.rob.rob_reads                     16831432                       # The number of ROB reads
system.cpu.rob.rob_writes                    23790746                       # The number of ROB writes
system.cpu.timesIdled                            3799                       # Number of times that the entire CPU went into an idle state and unscheduled itself
system.cpu.vec_regfile_reads                   317250                       # number of vector regfile reads
system.cpu.vec_regfile_writes                  210800                       # number of vector regfile writes
system.cpu.workload.numSyscalls                    61                       # Number of system calls
system.membus.snoop_filter.hit_multi_requests            0                       # Number of requests hitting in the snoop filter with multiple (>1) holders of the requested data.
system.membus.snoop_filter.hit_multi_snoops            0                       # Number of snoops hitting in the snoop filter with multiple (>1) holders of the requested data.
system.membus.snoop_filter.hit_single_requests            0                       # Number of requests hitting in the snoop filter with a single holder of the requested data.
system.membus.snoop_filter.hit_single_snoops            0                       # Number of snoops hitting in the snoop filter with a single holder of the requested data.
system.membus.snoop_filter.tot_requests          9196                       # Total number of requests made to the snoop filter.
system.membus.snoop_filter.tot_snoops               0                       # Total number of snoops made to the snoop filter.
system.tol2bus.snoop_filter.hit_multi_requests            2                       # Number of requests hitting in the snoop filter with multiple (>1) holders of the requested data.
system.tol2bus.snoop_filter.hit_multi_snoops            0                       # Number of snoops hitting in the snoop filter with multiple (>1) holders of the requested data.
system.tol2bus.snoop_filter.hit_single_requests        37451                       # Number of requests hitting in the snoop filter with a single holder of the requested data.
system.tol2bus.snoop_filter.hit_single_snoops            0                       # Number of snoops hitting in the snoop filter with a single holder of the requested data.
system.tol2bus.snoop_filter.tot_requests        75925                       # Total number of requests made to the snoop filter.
system.tol2bus.snoop_filter.tot_snoops              0                       # Total number of snoops made to the snoop filter.
system.membus.trans_dist::ReadResp               5350                       # Transaction distribution
system.membus.trans_dist::ReadExReq              3779                       # Transaction distribution
system.membus.trans_dist::ReadExResp             3779                       # Transaction distribution
system.membus.trans_dist::ReadSharedReq          5351                       # Transaction distribution
system.membus.trans_dist::InvalidateReq            66                       # Transaction distribution
system.membus.pkt_count_system.l2.mem_side::system.mem_ctrls.port        18325                       # Packet count per connected master and slave (bytes)
system.membus.pkt_count::total                  18325                       # Packet count per connected master and slave (bytes)
system.membus.pkt_size_system.l2.mem_side::system.mem_ctrls.port       584256                       # Cumulative packet size per connected master and slave (bytes)
system.membus.pkt_size::total                  584256                       # Cumulative packet size per connected master and slave (bytes)
system.membus.snoops                                0                       # Total snoops (count)
system.membus.snoopTraffic                          0                       # Total snoop traffic (bytes)
system.membus.snoop_fanout::samples              9196                       # Request fanout histogram
system.membus.snoop_fanout::mean                    0                       # Request fanout histogram
system.membus.snoop_fanout::stdev                   0                       # Request fanout histogram
system.membus.snoop_fanout::underflows              0      0.00%      0.00% # Request fanout histogram
system.membus.snoop_fanout::0                    9196    100.00%    100.00% # Request fanout histogram
system.membus.snoop_fanout::1                       0      0.00%    100.00% # Request fanout histogram
system.membus.snoop_fanout::overflows               0      0.00%    100.00% # Request fanout histogram
system.membus.snoop_fanout::min_value               0                       # Request fanout histogram
system.membus.snoop_fanout::max_value               0                       # Request fanout histogram
system.membus.snoop_fanout::total                9196                       # Request fanout histogram
system.membus.reqLayer0.occupancy            11507500                       # Layer occupancy (ticks)
system.membus.reqLayer0.utilization               0.4                       # Layer utilization (%)
system.membus.respLayer1.occupancy           48135750                       # Layer occupancy (ticks)
system.membus.respLayer1.utilization              1.7                       # Layer utilization (%)
system.membus.power_state.pwrStateResidencyTicks::UNDEFINED   2912117000                       # Cumulative time (in ticks) in various power states
system.tol2bus.trans_dist::ReadResp             33252                       # Transaction distribution
system.tol2bus.trans_dist::WritebackDirty        14494                       # Transaction distribution
system.tol2bus.trans_dist::WritebackClean         6496                       # Transaction distribution
system.tol2bus.trans_dist::CleanEvict           16460                       # Transaction distribution
system.tol2bus.trans_dist::ReadExReq             5142                       # Transaction distribution
system.tol2bus.trans_dist::ReadExResp            5142                       # Transaction distribution
system.tol2bus.trans_dist::ReadCleanReq          7009                       # Transaction distribution
system.tol2bus.trans_dist::ReadSharedReq        26244                       # Transaction distribution
system.tol2bus.trans_dist::InvalidateReq           80                       # Transaction distribution
system.tol2bus.trans_dist::InvalidateResp           80                       # Transaction distribution
system.tol2bus.pkt_count_system.cpu.icache.mem_side::system.l2.cpu_side        20513                       # Packet count per connected master and slave (bytes)
system.tol2bus.pkt_count_system.cpu.dcache.mem_side::system.l2.cpu_side        93886                       # Packet count per connected master and slave (bytes)
system.tol2bus.pkt_count::total                114399                       # Packet count per connected master and slave (bytes)
system.tol2bus.pkt_size_system.cpu.icache.mem_side::system.l2.cpu_side       864256                       # Cumulative packet size per connected master and slave (bytes)
system.tol2bus.pkt_size_system.cpu.dcache.mem_side::system.l2.cpu_side      2936320                       # Cumulative packet size per connected master and slave (bytes)
system.tol2bus.pkt_size::total                3800576                       # Cumulative packet size per connected master and slave (bytes)
system.tol2bus.snoops                               0                       # Total snoops (count)
system.tol2bus.snoopTraffic                         0                       # Total snoop traffic (bytes)
system.tol2bus.snoop_fanout::samples            38475                       # Request fanout histogram
system.tol2bus.snoop_fanout::mean            0.000078                       # Request fanout histogram
system.tol2bus.snoop_fanout::stdev           0.008830                       # Request fanout histogram
system.tol2bus.snoop_fanout::underflows             0      0.00%      0.00% # Request fanout histogram
system.tol2bus.snoop_fanout::0                  38472     99.99%     99.99% # Request fanout histogram
system.tol2bus.snoop_fanout::1                      3      0.01%    100.00% # Request fanout histogram
system.tol2bus.snoop_fanout::2                      0      0.00%    100.00% # Request fanout histogram
system.tol2bus.snoop_fanout::overflows              0      0.00%    100.00% # Request fanout histogram
system.tol2bus.snoop_fanout::min_value              0                       # Request fanout histogram
system.tol2bus.snoop_fanout::max_value              1                       # Request fanout histogram
system.tol2bus.snoop_fanout::total              38475                       # Request fanout histogram
system.tol2bus.reqLayer0.occupancy           58952500                       # Layer occupancy (ticks)
system.tol2bus.reqLayer0.utilization              2.0                       # Layer utilization (%)
system.tol2bus.respLayer1.occupancy          47120996                       # Layer occupancy (ticks)
system.tol2bus.respLayer1.utilization             1.6                       # Layer utilization (%)
system.tol2bus.respLayer0.occupancy          10517988                       # Layer occupancy (ticks)
system.tol2bus.respLayer0.utilization             0.4                       # Layer utilization (%)
system.tol2bus.power_state.pwrStateResidencyTicks::UNDEFINED   2912117000                       # Cumulative time (in ticks) in various power states
system.voltage_domain.voltage                       1                       # Voltage in Volts
system.clk_domain.clock                          1000                       # Clock period in ticks
system.l2.demand_hits::.cpu.inst                 4667                       # number of demand (read+write) hits
system.l2.demand_hits::.cpu.data                24598                       # number of demand (read+write) hits
system.l2.demand_hits::total                    29265                       # number of demand (read+write) hits
system.l2.overall_hits::.cpu.inst                4667                       # number of overall hits
system.l2.overall_hits::.cpu.data               24598                       # number of overall hits
system.l2.overall_hits::total                   29265                       # number of overall hits
system.l2.demand_misses::.cpu.inst               2342                       # number of demand (read+write) misses
system.l2.demand_misses::.cpu.data               6788                       # number of demand (read+write) misses
system.l2.demand_misses::total                   9130                       # number of demand (read+write) misses
system.l2.overall_misses::.cpu.inst              2342                       # number of overall misses
system.l2.overall_misses::.cpu.data              6788                       # number of overall misses
system.l2.overall_misses::total                  9130                       # number of overall misses
system.l2.demand_miss_latency::.cpu.inst    181482000                       # number of demand (read+write) miss cycles
system.l2.demand_miss_latency::.cpu.data    516998000                       # number of demand (read+write) miss cycles
system.l2.demand_miss_latency::total        698480000                       # number of demand (read+write) miss cycles
system.l2.overall_miss_latency::.cpu.inst    181482000                       # number of overall miss cycles
system.l2.overall_miss_latency::.cpu.data    516998000                       # number of overall miss cycles
system.l2.overall_miss_latency::total       698480000                       # number of overall miss cycles
system.l2.demand_accesses::.cpu.inst             7009                       # number of demand (read+write) accesses
system.l2.demand_accesses::.cpu.data            31386                       # number of demand (read+write) accesses
system.l2.demand_accesses::total                38395                       # number of demand (read+write) accesses
system.l2.overall_accesses::.cpu.inst            7009                       # number of overall (read+write) accesses
system.l2.overall_accesses::.cpu.data           31386                       # number of overall (read+write) accesses
system.l2.overall_accesses::total               38395                       # number of overall (read+write) accesses
system.l2.demand_miss_rate::.cpu.inst        0.334142                       # miss rate for demand accesses
system.l2.demand_miss_rate::.cpu.data        0.216275                       # miss rate for demand accesses
system.l2.demand_miss_rate::total            0.237791                       # miss rate for demand accesses
system.l2.overall_miss_rate::.cpu.inst       0.334142                       # miss rate for overall accesses
system.l2.overall_miss_rate::.cpu.data       0.216275                       # miss rate for overall accesses
system.l2.overall_miss_rate::total           0.237791                       # miss rate for overall accesses
[...]
system.cpu.dcache.demand_accesses::.cpu.data      2361021                       # number of demand (read+write) accesses
system.cpu.dcache.demand_accesses::total      2361021                       # number of demand (read+write) accesses
system.cpu.dcache.overall_accesses::.cpu.data      2362697                       # number of overall (read+write) accesses
system.cpu.dcache.overall_accesses::total      2362697                       # number of overall (read+write) accesses
system.cpu.dcache.demand_miss_rate::.cpu.data     0.035675                       # miss rate for demand accesses
system.cpu.dcache.demand_miss_rate::total     0.035675                       # miss rate for demand accesses
system.cpu.dcache.overall_miss_rate::.cpu.data     0.035682                       # miss rate for overall accesses
system.cpu.dcache.overall_miss_rate::total     0.035682                       # miss rate for overall accesses
system.cpu.dcache.demand_avg_miss_latency::.cpu.data 34403.571264                       # average overall miss latency
system.cpu.dcache.demand_avg_miss_latency::total 34403.571264                       # average overall miss latency
system.cpu.dcache.overall_avg_miss_latency::.cpu.data 34372.149123                       # average overall miss latency
system.cpu.dcache.overall_avg_miss_latency::total 34372.149123                       # average overall miss latency
system.cpu.dcache.blocked_cycles::no_mshrs        63136                       # number of cycles access was blocked
system.cpu.dcache.blocked_cycles::no_targets        32119                       # number of cycles access was blocked
system.cpu.dcache.blocked::no_mshrs              2463                       # number of cycles access was blocked
system.cpu.dcache.blocked::no_targets             269                       # number of cycles access was blocked
system.cpu.dcache.avg_blocked_cycles::no_mshrs    25.633780                       # average number of cycles each access was blocked
system.cpu.dcache.avg_blocked_cycles::no_targets   119.401487                       # average number of cycles each access was blocked
system.cpu.dcache.writebacks::.writebacks        14494                       # number of writebacks
system.cpu.dcache.writebacks::total             14494                       # number of writebacks
system.cpu.dcache.demand_mshr_hits::.cpu.data        52843                       # number of demand (read+write) MSHR hits
system.cpu.dcache.demand_mshr_hits::total        52843                       # number of demand (read+write) MSHR hits
system.cpu.dcache.overall_mshr_hits::.cpu.data        52843                       # number of overall MSHR hits
system.cpu.dcache.overall_mshr_hits::total        52843                       # number of overall MSHR hits
system.cpu.dcache.demand_mshr_misses::.cpu.data        31386                       # number of demand (read+write) MSHR misses
system.cpu.dcache.demand_mshr_misses::total        31386                       # number of demand (read+write) MSHR misses
system.cpu.dcache.overall_mshr_misses::.cpu.data        31460                       # number of overall MSHR misses
system.cpu.dcache.overall_mshr_misses::total        31460                       # number of overall MSHR misses
system.cpu.dcache.demand_mshr_miss_latency::.cpu.data    824936849                       # number of demand (read+write) MSHR miss cycles
system.cpu.dcache.demand_mshr_miss_latency::total    824936849                       # number of demand (read+write) MSHR miss cycles
system.cpu.dcache.overall_mshr_miss_latency::.cpu.data    826044349                       # number of overall MSHR miss cycles
system.cpu.dcache.overall_mshr_miss_latency::total    826044349                       # number of overall MSHR miss cycles
system.cpu.dcache.demand_mshr_miss_rate::.cpu.data     0.013293                       # mshr miss rate for demand accesses
system.cpu.dcache.demand_mshr_miss_rate::total     0.013293                       # mshr miss rate for demand accesses
system.cpu.dcache.overall_mshr_miss_rate::.cpu.data     0.013315                       # mshr miss rate for overall accesses
system.cpu.dcache.overall_mshr_miss_rate::total     0.013315                       # mshr miss rate for overall accesses
system.cpu.dcache.demand_avg_mshr_miss_latency::.cpu.data 26283.592971                       # average overall mshr miss latency
system.cpu.dcache.demand_avg_mshr_miss_latency::total 26283.592971                       # average overall mshr miss latency
system.cpu.dcache.overall_avg_mshr_miss_latency::.cpu.data 26256.972314                       # average overall mshr miss latency
system.cpu.dcache.overall_avg_mshr_miss_latency::total 26256.972314                       # average overall mshr miss latency
system.cpu.dcache.replacements                  30954                       # number of replacements
system.cpu.dcache.ReadReq_hits::.cpu.data      1211375                       # number of ReadReq hits
system.cpu.dcache.ReadReq_hits::total         1211375                       # number of ReadReq hits
system.cpu.dcache.ReadReq_misses::.cpu.data        55130                       # number of ReadReq misses
system.cpu.dcache.ReadReq_misses::total         55130                       # number of ReadReq misses
system.cpu.dcache.ReadReq_miss_latency::.cpu.data   1328513500                       # number of ReadReq miss cycles
system.cpu.dcache.ReadReq_miss_latency::total   1328513500                       # number of ReadReq miss cycles
system.cpu.dcache.ReadReq_accesses::.cpu.data      1266505                       # number of ReadReq accesses(hits+misses)
system.cpu.dcache.ReadReq_accesses::total      1266505                       # number of ReadReq accesses(hits+misses)
system.cpu.dcache.ReadReq_miss_rate::.cpu.data     0.043529                       # miss rate for ReadReq accesses
system.cpu.dcache.ReadReq_miss_rate::total     0.043529                       # miss rate for ReadReq accesses
system.cpu.dcache.ReadReq_avg_miss_latency::.cpu.data 24097.832396                       # average ReadReq miss latency
system.cpu.dcache.ReadReq_avg_miss_latency::total 24097.832396                       # average ReadReq miss latency
system.cpu.dcache.ReadReq_mshr_hits::.cpu.data        28964                       # number of ReadReq MSHR hits
system.cpu.dcache.ReadReq_mshr_hits::total        28964                       # number of ReadReq MSHR hits
system.cpu.dcache.ReadReq_mshr_misses::.cpu.data        26166                       # number of ReadReq MSHR misses
system.cpu.dcache.ReadReq_mshr_misses::total        26166                       # number of ReadReq MSHR misses
system.cpu.dcache.ReadReq_mshr_miss_latency::.cpu.data    512989500                       # number of ReadReq MSHR miss cycles
system.cpu.dcache.ReadReq_mshr_miss_latency::total    512989500                       # number of ReadReq MSHR miss cycles
system.cpu.dcache.ReadReq_mshr_miss_rate::.cpu.data     0.020660                       # mshr miss rate for ReadReq accesses
system.cpu.dcache.ReadReq_mshr_miss_rate::total     0.020660                       # mshr miss rate for ReadReq accesses
system.cpu.dcache.ReadReq_avg_mshr_miss_latency::.cpu.data 19605.193763                       # average ReadReq mshr miss latency
system.cpu.dcache.ReadReq_avg_mshr_miss_latency::total 19605.193763                       # average ReadReq mshr miss latency
system.cpu.dcache.WriteReq_hits::.cpu.data      1065257                       # number of WriteReq hits
system.cpu.dcache.WriteReq_hits::total        1065257                       # number of WriteReq hits
system.cpu.dcache.WriteReq_misses::.cpu.data        29020                       # number of WriteReq misses
system.cpu.dcache.WriteReq_misses::total        29020                       # number of WriteReq misses
system.cpu.dcache.WriteReq_miss_latency::.cpu.data   1566932956                       # number of WriteReq miss cycles
system.cpu.dcache.WriteReq_miss_latency::total   1566932956                       # number of WriteReq miss cycles
system.cpu.dcache.WriteReq_accesses::.cpu.data      1094277                       # number of WriteReq accesses(hits+misses)
system.cpu.dcache.WriteReq_accesses::total      1094277                       # number of WriteReq accesses(hits+misses)
system.cpu.dcache.WriteReq_miss_rate::.cpu.data     0.026520                       # miss rate for WriteReq accesses
system.cpu.dcache.WriteReq_miss_rate::total     0.026520                       # miss rate for WriteReq accesses
system.cpu.dcache.WriteReq_avg_miss_latency::.cpu.data 53994.933012                       # average WriteReq miss latency
system.cpu.dcache.WriteReq_avg_miss_latency::total 53994.933012                       # average WriteReq miss latency
system.cpu.dcache.WriteReq_mshr_hits::.cpu.data        23879                       # number of WriteReq MSHR hits
system.cpu.dcache.WriteReq_mshr_hits::total        23879                       # number of WriteReq MSHR hits
system.cpu.dcache.WriteReq_mshr_misses::.cpu.data         5141                       # number of WriteReq MSHR misses
system.cpu.dcache.WriteReq_mshr_misses::total         5141                       # number of WriteReq MSHR misses
system.cpu.dcache.WriteReq_mshr_miss_latency::.cpu.data    309694401                       # number of WriteReq MSHR miss cycles
system.cpu.dcache.WriteReq_mshr_miss_latency::total    309694401                       # number of WriteReq MSHR miss cycles
system.cpu.dcache.WriteReq_mshr_miss_rate::.cpu.data     0.004698                       # mshr miss rate for WriteReq accesses
system.cpu.dcache.WriteReq_mshr_miss_rate::total     0.004698                       # mshr miss rate for WriteReq accesses
system.cpu.dcache.WriteReq_avg_mshr_miss_latency::.cpu.data 60240.109123                       # average WriteReq mshr miss latency
system.cpu.dcache.WriteReq_avg_mshr_miss_latency::total 60240.109123                       # average WriteReq mshr miss latency
system.cpu.dcache.SoftPFReq_hits::.cpu.data         1599                       # number of SoftPFReq hits
system.cpu.dcache.SoftPFReq_hits::total          1599                       # number of SoftPFReq hits
system.cpu.dcache.SoftPFReq_misses::.cpu.data           77                       # number of SoftPFReq misses
system.cpu.dcache.SoftPFReq_misses::total           77                       # number of SoftPFReq misses
system.cpu.dcache.SoftPFReq_accesses::.cpu.data         1676                       # number of SoftPFReq accesses(hits+misses)
system.cpu.dcache.SoftPFReq_accesses::total         1676                       # number of SoftPFReq accesses(hits+misses)
system.cpu.dcache.SoftPFReq_miss_rate::.cpu.data     0.045943                       # miss rate for SoftPFReq accesses
system.cpu.dcache.SoftPFReq_miss_rate::total     0.045943                       # miss rate for SoftPFReq accesses
system.cpu.dcache.SoftPFReq_mshr_misses::.cpu.data           74                       # number of SoftPFReq MSHR misses
system.cpu.dcache.SoftPFReq_mshr_misses::total           74                       # number of SoftPFReq MSHR misses
system.cpu.dcache.SoftPFReq_mshr_miss_latency::.cpu.data      1107500                       # number of SoftPFReq MSHR miss cycles
system.cpu.dcache.SoftPFReq_mshr_miss_latency::total      1107500                       # number of SoftPFReq MSHR miss cycles
system.cpu.dcache.SoftPFReq_mshr_miss_rate::.cpu.data     0.044153                       # mshr miss rate for SoftPFReq accesses
system.cpu.dcache.SoftPFReq_mshr_miss_rate::total     0.044153                       # mshr miss rate for SoftPFReq accesses
system.cpu.dcache.SoftPFReq_avg_mshr_miss_latency::.cpu.data 14966.216216                       # average SoftPFReq mshr miss latency
system.cpu.dcache.SoftPFReq_avg_mshr_miss_latency::total 14966.216216                       # average SoftPFReq mshr miss latency
system.cpu.dcache.WriteLineReq_hits::.cpu.data          160                       # number of WriteLineReq hits
system.cpu.dcache.WriteLineReq_hits::total          160                       # number of WriteLineReq hits
system.cpu.dcache.WriteLineReq_misses::.cpu.data           79                       # number of WriteLineReq misses
system.cpu.dcache.WriteLineReq_misses::total           79                       # number of WriteLineReq misses
system.cpu.dcache.WriteLineReq_miss_latency::.cpu.data      2331948                       # number of WriteLineReq miss cycles
system.cpu.dcache.WriteLineReq_miss_latency::total      2331948                       # number of WriteLineReq miss cycles
system.cpu.dcache.WriteLineReq_accesses::.cpu.data          239                       # number of WriteLineReq accesses(hits+misses)
system.cpu.dcache.WriteLineReq_accesses::total          239                       # number of WriteLineReq accesses(hits+misses)
system.cpu.dcache.WriteLineReq_miss_rate::.cpu.data     0.330544                       # miss rate for WriteLineReq accesses
system.cpu.dcache.WriteLineReq_miss_rate::total     0.330544                       # miss rate for WriteLineReq accesses
system.cpu.dcache.WriteLineReq_avg_miss_latency::.cpu.data 29518.329114                       # average WriteLineReq miss latency
system.cpu.dcache.WriteLineReq_avg_miss_latency::total 29518.329114                       # average WriteLineReq miss latency
system.cpu.dcache.WriteLineReq_mshr_misses::.cpu.data           79                       # number of WriteLineReq MSHR misses
system.cpu.dcache.WriteLineReq_mshr_misses::total           79                       # number of WriteLineReq MSHR misses
system.cpu.dcache.WriteLineReq_mshr_miss_latency::.cpu.data      2252948                       # number of WriteLineReq MSHR miss cycles
system.cpu.dcache.WriteLineReq_mshr_miss_latency::total      2252948                       # number of WriteLineReq MSHR miss cycles
system.cpu.dcache.WriteLineReq_mshr_miss_rate::.cpu.data     0.330544                       # mshr miss rate for WriteLineReq accesses
system.cpu.dcache.WriteLineReq_mshr_miss_rate::total     0.330544                       # mshr miss rate for WriteLineReq accesses
system.cpu.dcache.WriteLineReq_avg_mshr_miss_latency::.cpu.data 28518.329114                       # average WriteLineReq mshr miss latency
system.cpu.dcache.WriteLineReq_avg_mshr_miss_latency::total 28518.329114                       # average WriteLineReq mshr miss latency
system.cpu.dcache.LoadLockedReq_hits::.cpu.data          285                       # number of LoadLockedReq hits
system.cpu.dcache.LoadLockedReq_hits::total          285                       # number of LoadLockedReq hits
system.cpu.dcache.LoadLockedReq_misses::.cpu.data           19                       # number of LoadLockedReq misses
system.cpu.dcache.LoadLockedReq_misses::total           19                       # number of LoadLockedReq misses
system.cpu.dcache.LoadLockedReq_miss_latency::.cpu.data       775500                       # number of LoadLockedReq miss cycles
system.cpu.dcache.LoadLockedReq_miss_latency::total       775500                       # number of LoadLockedReq miss cycles
system.cpu.dcache.LoadLockedReq_accesses::.cpu.data          304                       # number of LoadLockedReq accesses(hits+misses)
system.cpu.dcache.LoadLockedReq_accesses::total          304                       # number of LoadLockedReq accesses(hits+misses)
system.cpu.dcache.LoadLockedReq_miss_rate::.cpu.data     0.062500                       # miss rate for LoadLockedReq accesses
system.cpu.dcache.LoadLockedReq_miss_rate::total     0.062500                       # miss rate for LoadLockedReq accesses
system.cpu.dcache.LoadLockedReq_avg_miss_latency::.cpu.data 40815.789474                       # average LoadLockedReq miss latency
system.cpu.dcache.LoadLockedReq_avg_miss_latency::total 40815.789474                       # average LoadLockedReq miss latency
system.cpu.dcache.LoadLockedReq_mshr_hits::.cpu.data           13                       # number of LoadLockedReq MSHR hits
system.cpu.dcache.LoadLockedReq_mshr_hits::total           13                       # number of LoadLockedReq MSHR hits
system.cpu.dcache.LoadLockedReq_mshr_misses::.cpu.data            6                       # number of LoadLockedReq MSHR misses
system.cpu.dcache.LoadLockedReq_mshr_misses::total            6                       # number of LoadLockedReq MSHR misses
system.cpu.dcache.LoadLockedReq_mshr_miss_latency::.cpu.data       502000                       # number of LoadLockedReq MSHR miss cycles
system.cpu.dcache.LoadLockedReq_mshr_miss_latency::total       502000                       # number of LoadLockedReq MSHR miss cycles
system.cpu.dcache.LoadLockedReq_mshr_miss_rate::.cpu.data     0.019737                       # mshr miss rate for LoadLockedReq accesses
system.cpu.dcache.LoadLockedReq_mshr_miss_rate::total     0.019737                       # mshr miss rate for LoadLockedReq accesses
system.cpu.dcache.LoadLockedReq_avg_mshr_miss_latency::.cpu.data 83666.666667                       # average LoadLockedReq mshr miss latency
system.cpu.dcache.LoadLockedReq_avg_mshr_miss_latency::total 83666.666667                       # average LoadLockedReq mshr miss latency
system.cpu.dcache.StoreCondReq_hits::.cpu.data          267                       # number of StoreCondReq hits
system.cpu.dcache.StoreCondReq_hits::total          267                       # number of StoreCondReq hits
system.cpu.dcache.StoreCondReq_accesses::.cpu.data          267                       # number of StoreCondReq accesses(hits+misses)
system.cpu.dcache.StoreCondReq_accesses::total          267                       # number of StoreCondReq accesses(hits+misses)
system.cpu.dcache.power_state.pwrStateResidencyTicks::UNDEFINED   2912117000                       # Cumulative time (in ticks) in various power states
system.cpu.dcache.tags.tagsinuse           496.592970                       # Cycle average of tags in use
system.cpu.dcache.tags.total_refs             2310409                       # Total number of references to valid blocks.
system.cpu.dcache.tags.sampled_refs             31466                       # Sample count of references to valid blocks.
system.cpu.dcache.tags.avg_refs             73.425570                       # Average number of references to valid blocks.
system.cpu.dcache.tags.warmup_cycle            176500                       # Cycle when the warmup percentage was hit.
system.cpu.dcache.tags.occ_blocks::.cpu.data   496.592970                       # Average occupied blocks per requestor
system.cpu.dcache.tags.occ_percent::.cpu.data     0.969908                       # Average percentage of cache occupancy
system.cpu.dcache.tags.occ_percent::total     0.969908                       # Average percentage of cache occupancy
system.cpu.dcache.tags.occ_task_id_blocks::1024          512                       # Occupied blocks per task id
system.cpu.dcache.tags.age_task_id_blocks_1024::0          190                       # Occupied blocks per task id
system.cpu.dcache.tags.age_task_id_blocks_1024::1          254                       # Occupied blocks per task id
system.cpu.dcache.tags.age_task_id_blocks_1024::2           68                       # Occupied blocks per task id
system.cpu.dcache.tags.occ_task_id_percent::1024            1                       # Percentage of cache occupancy per task id
system.cpu.dcache.tags.tag_accesses           4758002                       # Number of tag accesses
system.cpu.dcache.tags.data_accesses          4758002                       # Number of data accesses
system.cpu.dcache.tags.power_state.pwrStateResidencyTicks::UNDEFINED   2912117000                       # Cumulative time (in ticks) in various power states
system.cpu.power_state.pwrStateResidencyTicks::ON   2912117000                       # Cumulative time (in ticks) in various power states

---------- End Simulation Statistics   ----------
