
---------- Begin Simulation Statistics ----------
final_tick                               530131437500                       # Number of ticks from beginning of simulation (restored from checkpoints and never reset)
host_inst_rate                                 249939                       # Simulator instruction rate (inst/s)
host_mem_usage                                 981160                       # Number of bytes of host memory used
host_op_rate                                   264990                       # Simulator op (including micro ops) rate (op/s)
host_seconds                                  4000.97                       # Real time elapsed on the host
host_tick_rate                              132500766                       # Simulator tick rate (ticks/s)
sim_freq                                 1000000000000                       # Frequency of simulated ticks
sim_insts                                  1000000001                       # Number of instructions simulated
sim_ops                                    1060218710                       # Number of ops (including micro ops) simulated
sim_seconds                                  0.530131                       # Number of seconds simulated
sim_ticks                                530131437500                       # Number of ticks simulated
system.cpu.Branches                         194543882                       # Number of branches fetched
system.cpu.committedInsts                  1000000001                       # Number of instructions committed
system.cpu.committedOps                    1060218710                       # Number of ops (including micro ops) committed
system.cpu.dtb.accesses                             0                       # DTB accesses
system.cpu.dtb.align_faults                         0                       # Number of TLB faults due to alignment restrictions
system.cpu.dtb.domain_faults                        0                       # Number of TLB faults due to domain restrictions
system.cpu.dtb.flush_entries                        0                       # Number of entries that have been flushed from TLB
system.cpu.dtb.flush_tlb                            0                       # Number of times complete TLB was flushed
system.cpu.dtb.flush_tlb_asid                       0                       # Number of times TLB was flushed by ASID
system.cpu.dtb.flush_tlb_mva                        0                       # Number of times TLB was flushed by MVA
system.cpu.dtb.flush_tlb_mva_asid                   0                       # Number of times TLB was flushed by MVA & ASID
system.cpu.dtb.hits                                 0                       # DTB hits
system.cpu.dtb.inst_accesses                        0                       # ITB inst accesses
system.cpu.dtb.inst_hits                            0                       # ITB inst hits
system.cpu.dtb.inst_misses                          0                       # ITB inst misses
system.cpu.dtb.misses                               0                       # DTB misses
system.cpu.dtb.perms_faults                         0                       # Number of TLB faults due to permissions restrictions
system.cpu.dtb.prefetch_faults                      0                       # Number of TLB faults due to prefetch
system.cpu.dtb.read_accesses                        0                       # DTB read accesses
system.cpu.dtb.read_hits                            0                       # DTB read hits
system.cpu.dtb.read_misses                          0                       # DTB read misses
system.cpu.dtb.stage2_mmu.stage2_tlb.accesses            0                       # DTB accesses
system.cpu.dtb.stage2_mmu.stage2_tlb.align_faults            0                       # Number of TLB faults due to alignment restrictions
system.cpu.dtb.stage2_mmu.stage2_tlb.domain_faults            0                       # Number of TLB faults due to domain restrictions
system.cpu.dtb.stage2_mmu.stage2_tlb.flush_entries            0                       # Number of entries that have been flushed from TLB
system.cpu.dtb.stage2_mmu.stage2_tlb.flush_tlb            0                       # Number of times complete TLB was flushed
system.cpu.dtb.stage2_mmu.stage2_tlb.flush_tlb_asid            0                       # Number of times TLB was flushed by ASID
system.cpu.dtb.stage2_mmu.stage2_tlb.flush_tlb_mva            0                       # Number of times TLB was flushed by MVA
system.cpu.dtb.stage2_mmu.stage2_tlb.flush_tlb_mva_asid            0                       # Number of times TLB was flushed by MVA & ASID
system.cpu.dtb.stage2_mmu.stage2_tlb.hits            0                       # DTB hits
system.cpu.dtb.stage2_mmu.stage2_tlb.inst_accesses            0                       # ITB inst accesses
system.cpu.dtb.stage2_mmu.stage2_tlb.inst_hits            0                       # ITB inst hits
system.cpu.dtb.stage2_mmu.stage2_tlb.inst_misses            0                       # ITB inst misses
system.cpu.dtb.stage2_mmu.stage2_tlb.misses            0                       # DTB misses
system.cpu.dtb.stage2_mmu.stage2_tlb.perms_faults            0                       # Number of TLB faults due to permissions restrictions
system.cpu.dtb.stage2_mmu.stage2_tlb.prefetch_faults            0                       # Number of TLB faults due to prefetch
system.cpu.dtb.stage2_mmu.stage2_tlb.read_accesses            0                       # DTB read accesses
system.cpu.dtb.stage2_mmu.stage2_tlb.read_hits            0                       # DTB read hits
system.cpu.dtb.stage2_mmu.stage2_tlb.read_misses            0                       # DTB read misses
system.cpu.dtb.stage2_mmu.stage2_tlb.walker.walkRequestOrigin_Requested::Data            0                       # Table walker requests started/completed, data/inst
system.cpu.dtb.stage2_mmu.stage2_tlb.walker.walkRequestOrigin_Requested::Inst            0                       # Table walker requests started/completed, data/inst
system.cpu.dtb.stage2_mmu.stage2_tlb.walker.walkRequestOrigin_Requested::total            0                       # Table walker requests started/completed, data/inst
system.cpu.dtb.stage2_mmu.stage2_tlb.walker.walkRequestOrigin_Completed::Data            0                       # Table walker requests started/completed, data/inst
system.cpu.dtb.stage2_mmu.stage2_tlb.walker.walkRequestOrigin_Completed::Inst            0                       # Table walker requests started/completed, data/inst
system.cpu.dtb.stage2_mmu.stage2_tlb.walker.walkRequestOrigin_Completed::total            0                       # Table walker requests started/completed, data/inst
system.cpu.dtb.stage2_mmu.stage2_tlb.walker.walkRequestOrigin::total            0                       # Table walker requests started/completed, data/inst
system.cpu.dtb.stage2_mmu.stage2_tlb.walker.walks            0                       # Table walker walks requested
system.cpu.dtb.stage2_mmu.stage2_tlb.write_accesses            0                       # DTB write accesses
system.cpu.dtb.stage2_mmu.stage2_tlb.write_hits            0                       # DTB write hits
system.cpu.dtb.stage2_mmu.stage2_tlb.write_misses            0                       # DTB write misses
system.cpu.dtb.walker.walkRequestOrigin_Requested::Data            0                       # Table walker requests started/completed, data/inst
system.cpu.dtb.walker.walkRequestOrigin_Requested::Inst            0                       # Table walker requests started/completed, data/inst
system.cpu.dtb.walker.walkRequestOrigin_Requested::total            0                       # Table walker requests started/completed, data/inst
system.cpu.dtb.walker.walkRequestOrigin_Completed::Data            0                       # Table walker requests started/completed, data/inst
system.cpu.dtb.walker.walkRequestOrigin_Completed::Inst            0                       # Table walker requests started/completed, data/inst
system.cpu.dtb.walker.walkRequestOrigin_Completed::total            0                       # Table walker requests started/completed, data/inst
system.cpu.dtb.walker.walkRequestOrigin::total            0                       # Table walker requests started/completed, data/inst
system.cpu.dtb.walker.walks                         0                       # Table walker walks requested
system.cpu.dtb.write_accesses                       0                       # DTB write accesses
system.cpu.dtb.write_hits                           0                       # DTB write hits
system.cpu.dtb.write_misses                         0                       # DTB write misses
system.cpu.idle_fraction                            0                       # Percentage of idle cycles
system.cpu.itb.accesses                             0                       # DTB accesses
system.cpu.itb.align_faults                         0                       # Number of TLB faults due to alignment restrictions
system.cpu.itb.domain_faults                        0                       # Number of TLB faults due to domain restrictions
system.cpu.itb.flush_entries                        0                       # Number of entries that have been flushed from TLB
system.cpu.itb.flush_tlb                            0                       # Number of times complete TLB was flushed
system.cpu.itb.flush_tlb_asid                       0                       # Number of times TLB was flushed by ASID
system.cpu.itb.flush_tlb_mva                        0                       # Number of times TLB was flushed by MVA
system.cpu.itb.flush_tlb_mva_asid                   0                       # Number of times TLB was flushed by MVA & ASID
system.cpu.itb.hits                                 0                       # DTB hits
system.cpu.itb.inst_accesses                        0                       # ITB inst accesses
system.cpu.itb.inst_hits                            0                       # ITB inst hits
system.cpu.itb.inst_misses                          0                       # ITB inst misses
system.cpu.itb.misses                               0                       # DTB misses
system.cpu.itb.perms_faults                         0                       # Number of TLB faults due to permissions restrictions
system.cpu.itb.prefetch_faults                      0                       # Number of TLB faults due to prefetch
system.cpu.itb.read_accesses                        0                       # DTB read accesses
system.cpu.itb.read_hits                            0                       # DTB read hits
system.cpu.itb.read_misses                          0                       # DTB read misses
system.cpu.itb.stage2_mmu.stage2_tlb.accesses            0                       # DTB accesses
system.cpu.itb.stage2_mmu.stage2_tlb.align_faults            0                       # Number of TLB faults due to alignment restrictions
system.cpu.itb.stage2_mmu.stage2_tlb.domain_faults            0                       # Number of TLB faults due to domain restrictions
system.cpu.itb.stage2_mmu.stage2_tlb.flush_entries            0                       # Number of entries that have been flushed from TLB
system.cpu.itb.stage2_mmu.stage2_tlb.flush_tlb            0                       # Number of times complete TLB was flushed
system.cpu.itb.stage2_mmu.stage2_tlb.flush_tlb_asid            0                       # Number of times TLB was flushed by ASID
system.cpu.itb.stage2_mmu.stage2_tlb.flush_tlb_mva            0                       # Number of times TLB was flushed by MVA
system.cpu.itb.stage2_mmu.stage2_tlb.flush_tlb_mva_asid            0                       # Number of times TLB was flushed by MVA & ASID
system.cpu.itb.stage2_mmu.stage2_tlb.hits            0                       # DTB hits
system.cpu.itb.stage2_mmu.stage2_tlb.inst_accesses            0                       # ITB inst accesses
system.cpu.itb.stage2_mmu.stage2_tlb.inst_hits            0                       # ITB inst hits
system.cpu.itb.stage2_mmu.stage2_tlb.inst_misses            0                       # ITB inst misses
system.cpu.itb.stage2_mmu.stage2_tlb.misses            0                       # DTB misses
system.cpu.itb.stage2_mmu.stage2_tlb.perms_faults            0                       # Number of TLB faults due to permissions restrictions
system.cpu.itb.stage2_mmu.stage2_tlb.prefetch_faults            0                       # Number of TLB faults due to prefetch
system.cpu.itb.stage2_mmu.stage2_tlb.read_accesses            0                       # DTB read accesses
system.cpu.itb.stage2_mmu.stage2_tlb.read_hits            0                       # DTB read hits
system.cpu.itb.stage2_mmu.stage2_tlb.read_misses            0                       # DTB read misses
system.cpu.itb.stage2_mmu.stage2_tlb.walker.walkRequestOrigin_Requested::Data            0                       # Table walker requests started/completed, data/inst
system.cpu.itb.stage2_mmu.stage2_tlb.walker.walkRequestOrigin_Requested::Inst            0                       # Table walker requests started/completed, data/inst
system.cpu.itb.stage2_mmu.stage2_tlb.walker.walkRequestOrigin_Requested::total            0                       # Table walker requests started/completed, data/inst
system.cpu.itb.stage2_mmu.stage2_tlb.walker.walkRequestOrigin_Completed::Data            0                       # Table walker requests started/completed, data/inst
system.cpu.itb.stage2_mmu.stage2_tlb.walker.walkRequestOrigin_Completed::Inst            0                       # Table walker requests started/completed, data/inst
system.cpu.itb.stage2_mmu.stage2_tlb.walker.walkRequestOrigin_Completed::total            0                       # Table walker requests started/completed, data/inst
system.cpu.itb.stage2_mmu.stage2_tlb.walker.walkRequestOrigin::total            0                       # Table walker requests started/completed, data/inst
system.cpu.itb.stage2_mmu.stage2_tlb.walker.walks            0                       # Table walker walks requested
system.cpu.itb.stage2_mmu.stage2_tlb.write_accesses            0                       # DTB write accesses
system.cpu.itb.stage2_mmu.stage2_tlb.write_hits            0                       # DTB write hits
system.cpu.itb.stage2_mmu.stage2_tlb.write_misses            0                       # DTB write misses
system.cpu.itb.walker.walkRequestOrigin_Requested::Data            0                       # Table walker requests started/completed, data/inst
system.cpu.itb.walker.walkRequestOrigin_Requested::Inst            0                       # Table walker requests started/completed, data/inst
system.cpu.itb.walker.walkRequestOrigin_Requested::total            0                       # Table walker requests started/completed, data/inst
system.cpu.itb.walker.walkRequestOrigin_Completed::Data            0                       # Table walker requests started/completed, data/inst
system.cpu.itb.walker.walkRequestOrigin_Completed::Inst            0                       # Table walker requests started/completed, data/inst
system.cpu.itb.walker.walkRequestOrigin_Completed::total            0                       # Table walker requests started/completed, data/inst
system.cpu.itb.walker.walkRequestOrigin::total            0                       # Table walker requests started/completed, data/inst
system.cpu.itb.walker.walks                         0                       # Table walker walks requested
system.cpu.itb.write_accesses                       0                       # DTB write accesses
system.cpu.itb.write_hits                           0                       # DTB write hits
system.cpu.itb.write_misses                         0                       # DTB write misses
system.cpu.not_idle_fraction                        1                       # Percentage of non-idle cycles
system.cpu.numCycles                       1060262876                       # number of cpu cycles simulated
system.cpu.numWorkItemsCompleted                    0                       # number of work items this cpu completed
system.cpu.numWorkItemsStarted                      0                       # number of work items this cpu started
system.cpu.num_busy_cycles                 1060262876                       # Number of busy cycles
system.cpu.num_cc_register_reads            490951296                       # number of times the CC registers were read
system.cpu.num_cc_register_writes           447945220                       # number of times the CC registers were written
system.cpu.num_conditional_control_insts    164915914                       # number of instructions that are conditional controls
system.cpu.num_fp_alu_accesses                      0                       # Number of float alu accesses
system.cpu.num_fp_insts                             0                       # number of float instructions
system.cpu.num_fp_register_reads                    0                       # number of times the floating registers were read
system.cpu.num_fp_register_writes                   0                       # number of times the floating registers were written
system.cpu.num_func_calls                    14674451                       # number of times a function call or return occured
system.cpu.num_idle_cycles                          0                       # Number of idle cycles
system.cpu.num_int_alu_accesses             914657920                       # Number of integer alu accesses
system.cpu.num_int_insts                    914657920                       # number of integer instructions
system.cpu.num_int_register_reads          1231171023                       # number of times the integer registers were read
system.cpu.num_int_register_writes          802645863                       # number of times the integer registers were written
system.cpu.num_load_insts                   176942031                       # Number of load instructions
system.cpu.num_mem_refs                     259957163                       # number of memory refs
system.cpu.num_store_insts                   83015132                       # Number of store instructions
system.cpu.num_vec_alu_accesses                 32128                       # Number of vector alu accesses
system.cpu.num_vec_insts                        32128                       # number of vector instructions
system.cpu.num_vec_register_reads               40906                       # number of times the vector registers were read
system.cpu.num_vec_register_writes              23638                       # number of times the vector registers were written
system.cpu.op_class::No_OpClass                  1465      0.00%      0.00% # Class of executed instruction
system.cpu.op_class::IntAlu                 795016253     74.98%     74.98% # Class of executed instruction
system.cpu.op_class::IntMult                  4801999      0.45%     75.44% # Class of executed instruction
system.cpu.op_class::IntDiv                    466719      0.04%     75.48% # Class of executed instruction
system.cpu.op_class::FloatAdd                       0      0.00%     75.48% # Class of executed instruction
system.cpu.op_class::FloatCmp                       7      0.00%     75.48% # Class of executed instruction
system.cpu.op_class::FloatCvt                      23      0.00%     75.48% # Class of executed instruction
system.cpu.op_class::FloatMult                      7      0.00%     75.48% # Class of executed instruction
system.cpu.op_class::FloatMultAcc                   0      0.00%     75.48% # Class of executed instruction
system.cpu.op_class::FloatDiv                       7      0.00%     75.48% # Class of executed instruction
system.cpu.op_class::FloatMisc                     71      0.00%     75.48% # Class of executed instruction
system.cpu.op_class::FloatSqrt                      0      0.00%     75.48% # Class of executed instruction
system.cpu.op_class::SimdAdd                     2963      0.00%     75.48% # Class of executed instruction
system.cpu.op_class::SimdAddAcc                     0      0.00%     75.48% # Class of executed instruction
system.cpu.op_class::SimdAlu                     5893      0.00%     75.48% # Class of executed instruction
system.cpu.op_class::SimdCmp                     5852      0.00%     75.48% # Class of executed instruction
system.cpu.op_class::SimdCvt                        0      0.00%     75.48% # Class of executed instruction
system.cpu.op_class::SimdMisc                    4454      0.00%     75.48% # Class of executed instruction
system.cpu.op_class::SimdMult                       0      0.00%     75.48% # Class of executed instruction
system.cpu.op_class::SimdMultAcc                    0      0.00%     75.48% # Class of executed instruction
system.cpu.op_class::SimdShift                      0      0.00%     75.48% # Class of executed instruction
system.cpu.op_class::SimdShiftAcc                   0      0.00%     75.48% # Class of executed instruction
system.cpu.op_class::SimdDiv                        0      0.00%     75.48% # Class of executed instruction
system.cpu.op_class::SimdSqrt                       0      0.00%     75.48% # Class of executed instruction
system.cpu.op_class::SimdFloatAdd                   0      0.00%     75.48% # Class of executed instruction
system.cpu.op_class::SimdFloatAlu                   0      0.00%     75.48% # Class of executed instruction
system.cpu.op_class::SimdFloatCmp                   0      0.00%     75.48% # Class of executed instruction
system.cpu.op_class::SimdFloatCvt                   0      0.00%     75.48% # Class of executed instruction
system.cpu.op_class::SimdFloatDiv                   0      0.00%     75.48% # Class of executed instruction
system.cpu.op_class::SimdFloatMisc                  0      0.00%     75.48% # Class of executed instruction
system.cpu.op_class::SimdFloatMult                  0      0.00%     75.48% # Class of executed instruction
system.cpu.op_class::SimdFloatMultAcc               0      0.00%     75.48% # Class of executed instruction
system.cpu.op_class::SimdFloatSqrt                  0      0.00%     75.48% # Class of executed instruction
system.cpu.op_class::SimdReduceAdd                  0      0.00%     75.48% # Class of executed instruction
system.cpu.op_class::SimdReduceAlu                  0      0.00%     75.48% # Class of executed instruction
system.cpu.op_class::SimdReduceCmp                  0      0.00%     75.48% # Class of executed instruction
system.cpu.op_class::SimdFloatReduceAdd             0      0.00%     75.48% # Class of executed instruction
system.cpu.op_class::SimdFloatReduceCmp             0      0.00%     75.48% # Class of executed instruction
system.cpu.op_class::SimdAes                        0      0.00%     75.48% # Class of executed instruction
system.cpu.op_class::SimdAesMix                     0      0.00%     75.48% # Class of executed instruction
system.cpu.op_class::SimdSha1Hash                   0      0.00%     75.48% # Class of executed instruction
system.cpu.op_class::SimdSha1Hash2                  0      0.00%     75.48% # Class of executed instruction
system.cpu.op_class::SimdSha256Hash                 0      0.00%     75.48% # Class of executed instruction
system.cpu.op_class::SimdSha256Hash2                0      0.00%     75.48% # Class of executed instruction
system.cpu.op_class::SimdShaSigma2                  0      0.00%     75.48% # Class of executed instruction
system.cpu.op_class::SimdShaSigma3                  0      0.00%     75.48% # Class of executed instruction
system.cpu.op_class::SimdPredAlu                    0      0.00%     75.48% # Class of executed instruction
system.cpu.op_class::MemRead                176942031     16.69%     92.17% # Class of executed instruction
system.cpu.op_class::MemWrite                83015132      7.83%    100.00% # Class of executed instruction
system.cpu.op_class::FloatMemRead                   0      0.00%    100.00% # Class of executed instruction
system.cpu.op_class::FloatMemWrite                  0      0.00%    100.00% # Class of executed instruction
system.cpu.op_class::IprAccess                      0      0.00%    100.00% # Class of executed instruction
system.cpu.op_class::InstPrefetch                   0      0.00%    100.00% # Class of executed instruction
system.cpu.op_class::total                 1060262876                       # Class of executed instruction
system.cpu.workload.numSyscalls                   186                       # Number of system calls
system.membus.snoop_filter.hit_multi_requests            0                       # Number of requests hitting in the snoop filter with multiple (>1) holders of the requested data.
system.membus.snoop_filter.hit_multi_snoops            0                       # Number of snoops hitting in the snoop filter with multiple (>1) holders of the requested data.
system.membus.snoop_filter.hit_single_requests      8519168                       # Number of requests hitting in the snoop filter with a single holder of the requested data.
system.membus.snoop_filter.hit_single_snoops            0                       # Number of snoops hitting in the snoop filter with a single holder of the requested data.
system.membus.snoop_filter.tot_requests      17071520                       # Total number of requests made to the snoop filter.
system.membus.snoop_filter.tot_snoops               0                       # Total number of snoops made to the snoop filter.
system.switch_cpus.committedInsts                   0                       # Number of instructions committed
system.switch_cpus.committedOps                     0                       # Number of ops (including micro ops) committed
system.switch_cpus.dtb.accesses                     0                       # DTB accesses
system.switch_cpus.dtb.align_faults                 0                       # Number of TLB faults due to alignment restrictions
system.switch_cpus.dtb.domain_faults                0                       # Number of TLB faults due to domain restrictions
system.switch_cpus.dtb.flush_entries                0                       # Number of entries that have been flushed from TLB
system.switch_cpus.dtb.flush_tlb                    0                       # Number of times complete TLB was flushed
system.switch_cpus.dtb.flush_tlb_asid               0                       # Number of times TLB was flushed by ASID
system.switch_cpus.dtb.flush_tlb_mva                0                       # Number of times TLB was flushed by MVA
system.switch_cpus.dtb.flush_tlb_mva_asid            0                       # Number of times TLB was flushed by MVA & ASID
system.switch_cpus.dtb.hits                         0                       # DTB hits
system.switch_cpus.dtb.inst_accesses                0                       # ITB inst accesses
system.switch_cpus.dtb.inst_hits                    0                       # ITB inst hits
system.switch_cpus.dtb.inst_misses                  0                       # ITB inst misses
system.switch_cpus.dtb.misses                       0                       # DTB misses
system.switch_cpus.dtb.perms_faults                 0                       # Number of TLB faults due to permissions restrictions
system.switch_cpus.dtb.prefetch_faults              0                       # Number of TLB faults due to prefetch
system.switch_cpus.dtb.read_accesses                0                       # DTB read accesses
system.switch_cpus.dtb.read_hits                    0                       # DTB read hits
system.switch_cpus.dtb.read_misses                  0                       # DTB read misses
system.switch_cpus.dtb.stage2_mmu.stage2_tlb.accesses            0                       # DTB accesses
system.switch_cpus.dtb.stage2_mmu.stage2_tlb.align_faults            0                       # Number of TLB faults due to alignment restrictions
system.switch_cpus.dtb.stage2_mmu.stage2_tlb.domain_faults            0                       # Number of TLB faults due to domain restrictions
system.switch_cpus.dtb.stage2_mmu.stage2_tlb.flush_entries            0                       # Number of entries that have been flushed from TLB
system.switch_cpus.dtb.stage2_mmu.stage2_tlb.flush_tlb            0                       # Number of times complete TLB was flushed
system.switch_cpus.dtb.stage2_mmu.stage2_tlb.flush_tlb_asid            0                       # Number of times TLB was flushed by ASID
system.switch_cpus.dtb.stage2_mmu.stage2_tlb.flush_tlb_mva            0                       # Number of times TLB was flushed by MVA
system.switch_cpus.dtb.stage2_mmu.stage2_tlb.flush_tlb_mva_asid            0                       # Number of times TLB was flushed by MVA & ASID
system.switch_cpus.dtb.stage2_mmu.stage2_tlb.hits            0                       # DTB hits
system.switch_cpus.dtb.stage2_mmu.stage2_tlb.inst_accesses            0                       # ITB inst accesses
system.switch_cpus.dtb.stage2_mmu.stage2_tlb.inst_hits            0                       # ITB inst hits
system.switch_cpus.dtb.stage2_mmu.stage2_tlb.inst_misses            0                       # ITB inst misses
system.switch_cpus.dtb.stage2_mmu.stage2_tlb.misses            0                       # DTB misses
system.switch_cpus.dtb.stage2_mmu.stage2_tlb.perms_faults            0                       # Number of TLB faults due to permissions restrictions
system.switch_cpus.dtb.stage2_mmu.stage2_tlb.prefetch_faults            0                       # Number of TLB faults due to prefetch
system.switch_cpus.dtb.stage2_mmu.stage2_tlb.read_accesses            0                       # DTB read accesses
system.switch_cpus.dtb.stage2_mmu.stage2_tlb.read_hits            0                       # DTB read hits
system.switch_cpus.dtb.stage2_mmu.stage2_tlb.read_misses            0                       # DTB read misses
system.switch_cpus.dtb.stage2_mmu.stage2_tlb.walker.walkRequestOrigin_Requested::Data            0                       # Table walker requests started/completed, data/inst
system.switch_cpus.dtb.stage2_mmu.stage2_tlb.walker.walkRequestOrigin_Requested::Inst            0                       # Table walker requests started/completed, data/inst
system.switch_cpus.dtb.stage2_mmu.stage2_tlb.walker.walkRequestOrigin_Requested::total            0                       # Table walker requests started/completed, data/inst
system.switch_cpus.dtb.stage2_mmu.stage2_tlb.walker.walkRequestOrigin_Completed::Data            0                       # Table walker requests started/completed, data/inst
system.switch_cpus.dtb.stage2_mmu.stage2_tlb.walker.walkRequestOrigin_Completed::Inst            0                       # Table walker requests started/completed, data/inst
system.switch_cpus.dtb.stage2_mmu.stage2_tlb.walker.walkRequestOrigin_Completed::total            0                       # Table walker requests started/completed, data/inst
system.switch_cpus.dtb.stage2_mmu.stage2_tlb.walker.walkRequestOrigin::total            0                       # Table walker requests started/completed, data/inst
system.switch_cpus.dtb.stage2_mmu.stage2_tlb.walker.walks            0                       # Table walker walks requested
system.switch_cpus.dtb.stage2_mmu.stage2_tlb.write_accesses            0                       # DTB write accesses
system.switch_cpus.dtb.stage2_mmu.stage2_tlb.write_hits            0                       # DTB write hits
system.switch_cpus.dtb.stage2_mmu.stage2_tlb.write_misses            0                       # DTB write misses
system.switch_cpus.dtb.walker.walkRequestOrigin_Requested::Data            0                       # Table walker requests started/completed, data/inst
system.switch_cpus.dtb.walker.walkRequestOrigin_Requested::Inst            0                       # Table walker requests started/completed, data/inst
system.switch_cpus.dtb.walker.walkRequestOrigin_Requested::total            0                       # Table walker requests started/completed, data/inst
system.switch_cpus.dtb.walker.walkRequestOrigin_Completed::Data            0                       # Table walker requests started/completed, data/inst
system.switch_cpus.dtb.walker.walkRequestOrigin_Completed::Inst            0                       # Table walker requests started/completed, data/inst
system.switch_cpus.dtb.walker.walkRequestOrigin_Completed::total            0                       # Table walker requests started/completed, data/inst
system.switch_cpus.dtb.walker.walkRequestOrigin::total            0                       # Table walker requests started/completed, data/inst
system.switch_cpus.dtb.walker.walks                 0                       # Table walker walks requested
system.switch_cpus.dtb.write_accesses               0                       # DTB write accesses
system.switch_cpus.dtb.write_hits                   0                       # DTB write hits
system.switch_cpus.dtb.write_misses                 0                       # DTB write misses
system.switch_cpus.idle_fraction                    1                       # Percentage of idle cycles
system.switch_cpus.itb.accesses                     0                       # DTB accesses
system.switch_cpus.itb.align_faults                 0                       # Number of TLB faults due to alignment restrictions
system.switch_cpus.itb.domain_faults                0                       # Number of TLB faults due to domain restrictions
system.switch_cpus.itb.flush_entries                0                       # Number of entries that have been flushed from TLB
system.switch_cpus.itb.flush_tlb                    0                       # Number of times complete TLB was flushed
system.switch_cpus.itb.flush_tlb_asid               0                       # Number of times TLB was flushed by ASID
system.switch_cpus.itb.flush_tlb_mva                0                       # Number of times TLB was flushed by MVA
system.switch_cpus.itb.flush_tlb_mva_asid            0                       # Number of times TLB was flushed by MVA & ASID
system.switch_cpus.itb.hits                         0                       # DTB hits
system.switch_cpus.itb.inst_accesses                0                       # ITB inst accesses
system.switch_cpus.itb.inst_hits                    0                       # ITB inst hits
system.switch_cpus.itb.inst_misses                  0                       # ITB inst misses
system.switch_cpus.itb.misses                       0                       # DTB misses
system.switch_cpus.itb.perms_faults                 0                       # Number of TLB faults due to permissions restrictions
system.switch_cpus.itb.prefetch_faults              0                       # Number of TLB faults due to prefetch
system.switch_cpus.itb.read_accesses                0                       # DTB read accesses
system.switch_cpus.itb.read_hits                    0                       # DTB read hits
system.switch_cpus.itb.read_misses                  0                       # DTB read misses
system.switch_cpus.itb.stage2_mmu.stage2_tlb.accesses            0                       # DTB accesses
system.switch_cpus.itb.stage2_mmu.stage2_tlb.align_faults            0                       # Number of TLB faults due to alignment restrictions
system.switch_cpus.itb.stage2_mmu.stage2_tlb.domain_faults            0                       # Number of TLB faults due to domain restrictions
system.switch_cpus.itb.stage2_mmu.stage2_tlb.flush_entries            0                       # Number of entries that have been flushed from TLB
system.switch_cpus.itb.stage2_mmu.stage2_tlb.flush_tlb            0                       # Number of times complete TLB was flushed
system.switch_cpus.itb.stage2_mmu.stage2_tlb.flush_tlb_asid            0                       # Number of times TLB was flushed by ASID
system.switch_cpus.itb.stage2_mmu.stage2_tlb.flush_tlb_mva            0                       # Number of times TLB was flushed by MVA
system.switch_cpus.itb.stage2_mmu.stage2_tlb.flush_tlb_mva_asid            0                       # Number of times TLB was flushed by MVA & ASID
system.switch_cpus.itb.stage2_mmu.stage2_tlb.hits            0                       # DTB hits
system.switch_cpus.itb.stage2_mmu.stage2_tlb.inst_accesses            0                       # ITB inst accesses
system.switch_cpus.itb.stage2_mmu.stage2_tlb.inst_hits            0                       # ITB inst hits
system.switch_cpus.itb.stage2_mmu.stage2_tlb.inst_misses            0                       # ITB inst misses
system.switch_cpus.itb.stage2_mmu.stage2_tlb.misses            0                       # DTB misses
system.switch_cpus.itb.stage2_mmu.stage2_tlb.perms_faults            0                       # Number of TLB faults due to permissions restrictions
system.switch_cpus.itb.stage2_mmu.stage2_tlb.prefetch_faults            0                       # Number of TLB faults due to prefetch
system.switch_cpus.itb.stage2_mmu.stage2_tlb.read_accesses            0                       # DTB read accesses
system.switch_cpus.itb.stage2_mmu.stage2_tlb.read_hits            0                       # DTB read hits
system.switch_cpus.itb.stage2_mmu.stage2_tlb.read_misses            0                       # DTB read misses
system.switch_cpus.itb.stage2_mmu.stage2_tlb.walker.walkRequestOrigin_Requested::Data            0                       # Table walker requests started/completed, data/inst
system.switch_cpus.itb.stage2_mmu.stage2_tlb.walker.walkRequestOrigin_Requested::Inst            0                       # Table walker requests started/completed, data/inst
system.switch_cpus.itb.stage2_mmu.stage2_tlb.walker.walkRequestOrigin_Requested::total            0                       # Table walker requests started/completed, data/inst
system.switch_cpus.itb.stage2_mmu.stage2_tlb.walker.walkRequestOrigin_Completed::Data            0                       # Table walker requests started/completed, data/inst
system.switch_cpus.itb.stage2_mmu.stage2_tlb.walker.walkRequestOrigin_Completed::Inst            0                       # Table walker requests started/completed, data/inst
system.switch_cpus.itb.stage2_mmu.stage2_tlb.walker.walkRequestOrigin_Completed::total            0                       # Table walker requests started/completed, data/inst
system.switch_cpus.itb.stage2_mmu.stage2_tlb.walker.walkRequestOrigin::total            0                       # Table walker requests started/completed, data/inst
system.switch_cpus.itb.stage2_mmu.stage2_tlb.walker.walks            0                       # Table walker walks requested
system.switch_cpus.itb.stage2_mmu.stage2_tlb.write_accesses            0                       # DTB write accesses
system.switch_cpus.itb.stage2_mmu.stage2_tlb.write_hits            0                       # DTB write hits
system.switch_cpus.itb.stage2_mmu.stage2_tlb.write_misses            0                       # DTB write misses
system.switch_cpus.itb.walker.walkRequestOrigin_Requested::Data            0                       # Table walker requests started/completed, data/inst
system.switch_cpus.itb.walker.walkRequestOrigin_Requested::Inst            0                       # Table walker requests started/completed, data/inst
system.switch_cpus.itb.walker.walkRequestOrigin_Requested::total            0                       # Table walker requests started/completed, data/inst
system.switch_cpus.itb.walker.walkRequestOrigin_Completed::Data            0                       # Table walker requests started/completed, data/inst
system.switch_cpus.itb.walker.walkRequestOrigin_Completed::Inst            0                       # Table walker requests started/completed, data/inst
system.switch_cpus.itb.walker.walkRequestOrigin_Completed::total            0                       # Table walker requests started/completed, data/inst
system.switch_cpus.itb.walker.walkRequestOrigin::total            0                       # Table walker requests started/completed, data/inst
system.switch_cpus.itb.walker.walks                 0                       # Table walker walks requested
system.switch_cpus.itb.write_accesses               0                       # DTB write accesses
system.switch_cpus.itb.write_hits                   0                       # DTB write hits
system.switch_cpus.itb.write_misses                 0                       # DTB write misses
system.switch_cpus.not_idle_fraction                0                       # Percentage of non-idle cycles
system.switch_cpus.numCycles                        0                       # number of cpu cycles simulated
system.switch_cpus.numWorkItemsCompleted            0                       # number of work items this cpu completed
system.switch_cpus.numWorkItemsStarted              0                       # number of work items this cpu started
system.switch_cpus.num_busy_cycles                  0                       # Number of busy cycles
system.switch_cpus.num_conditional_control_insts            0                       # number of instructions that are conditional controls
system.switch_cpus.num_fp_alu_accesses              0                       # Number of float alu accesses
system.switch_cpus.num_fp_insts                     0                       # number of float instructions
system.switch_cpus.num_fp_register_reads            0                       # number of times the floating registers were read
system.switch_cpus.num_fp_register_writes            0                       # number of times the floating registers were written
system.switch_cpus.num_func_calls                   0                       # number of times a function call or return occured
system.switch_cpus.num_idle_cycles                  0                       # Number of idle cycles
system.switch_cpus.num_int_alu_accesses             0                       # Number of integer alu accesses
system.switch_cpus.num_int_insts                    0                       # number of integer instructions
system.switch_cpus.num_int_register_reads            0                       # number of times the integer registers were read
system.switch_cpus.num_int_register_writes            0                       # number of times the integer registers were written
system.switch_cpus.num_load_insts                   0                       # Number of load instructions
system.switch_cpus.num_mem_refs                     0                       # number of memory refs
system.switch_cpus.num_store_insts                  0                       # Number of store instructions
system.switch_cpus.num_vec_alu_accesses             0                       # Number of vector alu accesses
system.switch_cpus.num_vec_insts                    0                       # number of vector instructions
system.switch_cpus.num_vec_register_reads            0                       # number of times the vector registers were read
system.switch_cpus.num_vec_register_writes            0                       # number of times the vector registers were written
system.switch_cpus.op_class::No_OpClass             0                       # Class of executed instruction
system.switch_cpus.op_class::IntAlu                 0                       # Class of executed instruction
system.switch_cpus.op_class::IntMult                0                       # Class of executed instruction
system.switch_cpus.op_class::IntDiv                 0                       # Class of executed instruction
system.switch_cpus.op_class::FloatAdd               0                       # Class of executed instruction
system.switch_cpus.op_class::FloatCmp               0                       # Class of executed instruction
system.switch_cpus.op_class::FloatCvt               0                       # Class of executed instruction
system.switch_cpus.op_class::FloatMult              0                       # Class of executed instruction
system.switch_cpus.op_class::FloatMultAcc            0                       # Class of executed instruction
system.switch_cpus.op_class::FloatDiv               0                       # Class of executed instruction
system.switch_cpus.op_class::FloatMisc              0                       # Class of executed instruction
system.switch_cpus.op_class::FloatSqrt              0                       # Class of executed instruction
system.switch_cpus.op_class::SimdAdd                0                       # Class of executed instruction
system.switch_cpus.op_class::SimdAddAcc             0                       # Class of executed instruction
system.switch_cpus.op_class::SimdAlu                0                       # Class of executed instruction
system.switch_cpus.op_class::SimdCmp                0                       # Class of executed instruction
system.switch_cpus.op_class::SimdCvt                0                       # Class of executed instruction
system.switch_cpus.op_class::SimdMisc               0                       # Class of executed instruction
system.switch_cpus.op_class::SimdMult               0                       # Class of executed instruction
system.switch_cpus.op_class::SimdMultAcc            0                       # Class of executed instruction
system.switch_cpus.op_class::SimdShift              0                       # Class of executed instruction
system.switch_cpus.op_class::SimdShiftAcc            0                       # Class of executed instruction
system.switch_cpus.op_class::SimdDiv                0                       # Class of executed instruction
system.switch_cpus.op_class::SimdSqrt               0                       # Class of executed instruction
system.switch_cpus.op_class::SimdFloatAdd            0                       # Class of executed instruction
system.switch_cpus.op_class::SimdFloatAlu            0                       # Class of executed instruction
system.switch_cpus.op_class::SimdFloatCmp            0                       # Class of executed instruction
system.switch_cpus.op_class::SimdFloatCvt            0                       # Class of executed instruction
system.switch_cpus.op_class::SimdFloatDiv            0                       # Class of executed instruction
system.switch_cpus.op_class::SimdFloatMisc            0                       # Class of executed instruction
system.switch_cpus.op_class::SimdFloatMult            0                       # Class of executed instruction
system.switch_cpus.op_class::SimdFloatMultAcc            0                       # Class of executed instruction
system.switch_cpus.op_class::SimdFloatSqrt            0                       # Class of executed instruction
system.switch_cpus.op_class::SimdReduceAdd            0                       # Class of executed instruction
system.switch_cpus.op_class::SimdReduceAlu            0                       # Class of executed instruction
system.switch_cpus.op_class::SimdReduceCmp            0                       # Class of executed instruction
system.switch_cpus.op_class::SimdFloatReduceAdd            0                       # Class of executed instruction
system.switch_cpus.op_class::SimdFloatReduceCmp            0                       # Class of executed instruction
system.switch_cpus.op_class::SimdAes                0                       # Class of executed instruction
system.switch_cpus.op_class::SimdAesMix             0                       # Class of executed instruction
system.switch_cpus.op_class::SimdSha1Hash            0                       # Class of executed instruction
system.switch_cpus.op_class::SimdSha1Hash2            0                       # Class of executed instruction
system.switch_cpus.op_class::SimdSha256Hash            0                       # Class of executed instruction
system.switch_cpus.op_class::SimdSha256Hash2            0                       # Class of executed instruction
system.switch_cpus.op_class::SimdShaSigma2            0                       # Class of executed instruction
system.switch_cpus.op_class::SimdShaSigma3            0                       # Class of executed instruction
system.switch_cpus.op_class::SimdPredAlu            0                       # Class of executed instruction
system.switch_cpus.op_class::MemRead                0                       # Class of executed instruction
system.switch_cpus.op_class::MemWrite               0                       # Class of executed instruction
system.switch_cpus.op_class::FloatMemRead            0                       # Class of executed instruction
system.switch_cpus.op_class::FloatMemWrite            0                       # Class of executed instruction
system.switch_cpus.op_class::IprAccess              0                       # Class of executed instruction
system.switch_cpus.op_class::InstPrefetch            0                       # Class of executed instruction
system.switch_cpus.op_class::total                  0                       # Class of executed instruction
system.switch_cpus_1.branchPred.BTBCorrect            0                       # Number of correct BTB predictions (this stat may not work properly.
system.switch_cpus_1.branchPred.BTBHitPct          nan                       # BTB Hit Percentage
system.switch_cpus_1.branchPred.BTBHits             0                       # Number of BTB hits
system.switch_cpus_1.branchPred.BTBLookups            0                       # Number of BTB lookups
system.switch_cpus_1.branchPred.RASInCorrect            0                       # Number of incorrect RAS predictions.
system.switch_cpus_1.branchPred.condIncorrect            0                       # Number of conditional branches incorrect
system.switch_cpus_1.branchPred.condPredicted            0                       # Number of conditional branches predicted
system.switch_cpus_1.branchPred.indirectHits            0                       # Number of indirect target hits.
system.switch_cpus_1.branchPred.indirectLookups            0                       # Number of indirect predictor lookups.
system.switch_cpus_1.branchPred.indirectMisses            0                       # Number of indirect misses.
system.switch_cpus_1.branchPred.lookups             0                       # Number of BP lookups
system.switch_cpus_1.branchPred.loop_predictor.loopPredictorCorrect            0                       # Number of times the loop predictor is the provider and the prediction is correct
system.switch_cpus_1.branchPred.loop_predictor.loopPredictorWrong            0                       # Number of times the loop predictor is the provider and the prediction is wrong
system.switch_cpus_1.branchPred.statistical_corrector.scPredictorCorrect            0                       # Number of time the SC predictor is the provider and the prediction is correct
system.switch_cpus_1.branchPred.statistical_corrector.scPredictorWrong            0                       # Number of time the SC predictor is the provider and the prediction is wrong
system.switch_cpus_1.branchPred.tage.bimodalAltMatchProviderCorrect            0                       # Number of times TAGE Alt Match is the bimodal and it is the provider and the prediction is correct
system.switch_cpus_1.branchPred.tage.bimodalAltMatchProviderWrong            0                       # Number of times TAGE Alt Match is the bimodal and it is the provider and the prediction is wrong
system.switch_cpus_1.branchPred.tage.tageAltMatchProvider::0            0                       # TAGE provider for alt match
system.switch_cpus_1.branchPred.tage.tageAltMatchProvider::1            0                       # TAGE provider for alt match
system.switch_cpus_1.branchPred.tage.tageAltMatchProvider::2            0                       # TAGE provider for alt match
system.switch_cpus_1.branchPred.tage.tageAltMatchProvider::3            0                       # TAGE provider for alt match
system.switch_cpus_1.branchPred.tage.tageAltMatchProvider::4            0                       # TAGE provider for alt match
system.switch_cpus_1.branchPred.tage.tageAltMatchProvider::5            0                       # TAGE provider for alt match
system.switch_cpus_1.branchPred.tage.tageAltMatchProvider::6            0                       # TAGE provider for alt match
system.switch_cpus_1.branchPred.tage.tageAltMatchProvider::7            0                       # TAGE provider for alt match
system.switch_cpus_1.branchPred.tage.tageAltMatchProvider::8            0                       # TAGE provider for alt match
system.switch_cpus_1.branchPred.tage.tageAltMatchProvider::9            0                       # TAGE provider for alt match
system.switch_cpus_1.branchPred.tage.tageAltMatchProvider::10            0                       # TAGE provider for alt match
system.switch_cpus_1.branchPred.tage.tageAltMatchProvider::11            0                       # TAGE provider for alt match
system.switch_cpus_1.branchPred.tage.tageAltMatchProvider::12            0                       # TAGE provider for alt match
system.switch_cpus_1.branchPred.tage.tageAltMatchProvider::13            0                       # TAGE provider for alt match
system.switch_cpus_1.branchPred.tage.tageAltMatchProvider::14            0                       # TAGE provider for alt match
system.switch_cpus_1.branchPred.tage.tageAltMatchProvider::15            0                       # TAGE provider for alt match
system.switch_cpus_1.branchPred.tage.tageAltMatchProvider::16            0                       # TAGE provider for alt match
system.switch_cpus_1.branchPred.tage.tageAltMatchProvider::17            0                       # TAGE provider for alt match
system.switch_cpus_1.branchPred.tage.tageAltMatchProvider::18            0                       # TAGE provider for alt match
system.switch_cpus_1.branchPred.tage.tageAltMatchProvider::19            0                       # TAGE provider for alt match
system.switch_cpus_1.branchPred.tage.tageAltMatchProvider::20            0                       # TAGE provider for alt match
system.switch_cpus_1.branchPred.tage.tageAltMatchProvider::21            0                       # TAGE provider for alt match
system.switch_cpus_1.branchPred.tage.tageAltMatchProvider::22            0                       # TAGE provider for alt match
system.switch_cpus_1.branchPred.tage.tageAltMatchProvider::23            0                       # TAGE provider for alt match
system.switch_cpus_1.branchPred.tage.tageAltMatchProvider::24            0                       # TAGE provider for alt match
system.switch_cpus_1.branchPred.tage.tageAltMatchProvider::25            0                       # TAGE provider for alt match
system.switch_cpus_1.branchPred.tage.tageAltMatchProvider::26            0                       # TAGE provider for alt match
system.switch_cpus_1.branchPred.tage.tageAltMatchProvider::27            0                       # TAGE provider for alt match
system.switch_cpus_1.branchPred.tage.tageAltMatchProvider::28            0                       # TAGE provider for alt match
system.switch_cpus_1.branchPred.tage.tageAltMatchProvider::29            0                       # TAGE provider for alt match
system.switch_cpus_1.branchPred.tage.tageAltMatchProvider::30            0                       # TAGE provider for alt match
system.switch_cpus_1.branchPred.tage.tageAltMatchProviderCorrect            0                       # Number of times TAGE Alt Match is the provider and the prediction is correct
system.switch_cpus_1.branchPred.tage.tageAltMatchProviderWouldHaveHit            0                       # Number of times TAGE Longest Match is the provider, the prediction is wrong and Alt Match prediction was correct
system.switch_cpus_1.branchPred.tage.tageAltMatchProviderWrong            0                       # Number of times TAGE Alt Match is the provider and the prediction is wrong
system.switch_cpus_1.branchPred.tage.tageBimodalProviderCorrect            0                       # Number of times there are no hits on the TAGE tables and the bimodal prediction is correct
system.switch_cpus_1.branchPred.tage.tageBimodalProviderWrong            0                       # Number of times there are no hits on the TAGE tables and the bimodal prediction is wrong
system.switch_cpus_1.branchPred.tage.tageLongestMatchProvider::0            0                       # TAGE provider for longest match
system.switch_cpus_1.branchPred.tage.tageLongestMatchProvider::1            0                       # TAGE provider for longest match
system.switch_cpus_1.branchPred.tage.tageLongestMatchProvider::2            0                       # TAGE provider for longest match
system.switch_cpus_1.branchPred.tage.tageLongestMatchProvider::3            0                       # TAGE provider for longest match
system.switch_cpus_1.branchPred.tage.tageLongestMatchProvider::4            0                       # TAGE provider for longest match
system.switch_cpus_1.branchPred.tage.tageLongestMatchProvider::5            0                       # TAGE provider for longest match
system.switch_cpus_1.branchPred.tage.tageLongestMatchProvider::6            0                       # TAGE provider for longest match
system.switch_cpus_1.branchPred.tage.tageLongestMatchProvider::7            0                       # TAGE provider for longest match
system.switch_cpus_1.branchPred.tage.tageLongestMatchProvider::8            0                       # TAGE provider for longest match
system.switch_cpus_1.branchPred.tage.tageLongestMatchProvider::9            0                       # TAGE provider for longest match
system.switch_cpus_1.branchPred.tage.tageLongestMatchProvider::10            0                       # TAGE provider for longest match
system.switch_cpus_1.branchPred.tage.tageLongestMatchProvider::11            0                       # TAGE provider for longest match
system.switch_cpus_1.branchPred.tage.tageLongestMatchProvider::12            0                       # TAGE provider for longest match
system.switch_cpus_1.branchPred.tage.tageLongestMatchProvider::13            0                       # TAGE provider for longest match
system.switch_cpus_1.branchPred.tage.tageLongestMatchProvider::14            0                       # TAGE provider for longest match
system.switch_cpus_1.branchPred.tage.tageLongestMatchProvider::15            0                       # TAGE provider for longest match
system.switch_cpus_1.branchPred.tage.tageLongestMatchProvider::16            0                       # TAGE provider for longest match
system.switch_cpus_1.branchPred.tage.tageLongestMatchProvider::17            0                       # TAGE provider for longest match
system.switch_cpus_1.branchPred.tage.tageLongestMatchProvider::18            0                       # TAGE provider for longest match
system.switch_cpus_1.branchPred.tage.tageLongestMatchProvider::19            0                       # TAGE provider for longest match
system.switch_cpus_1.branchPred.tage.tageLongestMatchProvider::20            0                       # TAGE provider for longest match
system.switch_cpus_1.branchPred.tage.tageLongestMatchProvider::21            0                       # TAGE provider for longest match
system.switch_cpus_1.branchPred.tage.tageLongestMatchProvider::22            0                       # TAGE provider for longest match
system.switch_cpus_1.branchPred.tage.tageLongestMatchProvider::23            0                       # TAGE provider for longest match
system.switch_cpus_1.branchPred.tage.tageLongestMatchProvider::24            0                       # TAGE provider for longest match
system.switch_cpus_1.branchPred.tage.tageLongestMatchProvider::25            0                       # TAGE provider for longest match
system.switch_cpus_1.branchPred.tage.tageLongestMatchProvider::26            0                       # TAGE provider for longest match
system.switch_cpus_1.branchPred.tage.tageLongestMatchProvider::27            0                       # TAGE provider for longest match
system.switch_cpus_1.branchPred.tage.tageLongestMatchProvider::28            0                       # TAGE provider for longest match
system.switch_cpus_1.branchPred.tage.tageLongestMatchProvider::29            0                       # TAGE provider for longest match
system.switch_cpus_1.branchPred.tage.tageLongestMatchProvider::30            0                       # TAGE provider for longest match
system.switch_cpus_1.branchPred.tage.tageLongestMatchProviderCorrect            0                       # Number of times TAGE Longest Match is the provider and the prediction is correct
system.switch_cpus_1.branchPred.tage.tageLongestMatchProviderWouldHaveHit            0                       # Number of times TAGE Alt Match is the provider, the prediction is wrong and Longest Match prediction was correct
system.switch_cpus_1.branchPred.tage.tageLongestMatchProviderWrong            0                       # Number of times TAGE Longest Match is the provider and the prediction is wrong
system.switch_cpus_1.branchPred.usedRAS             0                       # Number of times the RAS was used to get a target.
system.switch_cpus_1.branchPred.wormholepredictor.whPredictorCorrect            0                       # Number of time the WH predictor is the provider and the prediction is correct
system.switch_cpus_1.branchPred.wormholepredictor.whPredictorWrong            0                       # Number of time the WH predictor is the provider and the prediction is wrong
system.switch_cpus_1.branchPredindirectMispredicted            0                       # Number of mispredicted indirect branches.
system.switch_cpus_1.commit.amos                    0                       # Number of atomic instructions committed
system.switch_cpus_1.commit.branches                0                       # Number of branches committed
system.switch_cpus_1.commit.bw_lim_events            0                       # number cycles where commit BW limit reached
system.switch_cpus_1.commit.committedInsts            0                       # Number of instructions committed
system.switch_cpus_1.commit.committedOps            0                       # Number of ops (including micro ops) committed
system.switch_cpus_1.commit.committed_per_cycle::samples            0                       # Number of insts commited each cycle
system.switch_cpus_1.commit.committed_per_cycle::mean          nan                       # Number of insts commited each cycle
system.switch_cpus_1.commit.committed_per_cycle::stdev          nan                       # Number of insts commited each cycle
system.switch_cpus_1.commit.committed_per_cycle::underflows            0                       # Number of insts commited each cycle
system.switch_cpus_1.commit.committed_per_cycle::0            0                       # Number of insts commited each cycle
system.switch_cpus_1.commit.committed_per_cycle::1            0                       # Number of insts commited each cycle
system.switch_cpus_1.commit.committed_per_cycle::2            0                       # Number of insts commited each cycle
system.switch_cpus_1.commit.committed_per_cycle::3            0                       # Number of insts commited each cycle
system.switch_cpus_1.commit.committed_per_cycle::4            0                       # Number of insts commited each cycle
system.switch_cpus_1.commit.committed_per_cycle::5            0                       # Number of insts commited each cycle
system.switch_cpus_1.commit.committed_per_cycle::6            0                       # Number of insts commited each cycle
system.switch_cpus_1.commit.committed_per_cycle::7            0                       # Number of insts commited each cycle
system.switch_cpus_1.commit.committed_per_cycle::8            0                       # Number of insts commited each cycle
system.switch_cpus_1.commit.committed_per_cycle::overflows            0                       # Number of insts commited each cycle
system.switch_cpus_1.commit.committed_per_cycle::min_value            0                       # Number of insts commited each cycle
system.switch_cpus_1.commit.committed_per_cycle::max_value            0                       # Number of insts commited each cycle
system.switch_cpus_1.commit.committed_per_cycle::total            0                       # Number of insts commited each cycle
system.switch_cpus_1.commit.fp_insts                0                       # Number of committed floating point instructions.
system.switch_cpus_1.commit.function_calls            0                       # Number of function calls committed.
system.switch_cpus_1.commit.int_insts               0                       # Number of committed integer instructions.
system.switch_cpus_1.commit.loads                   0                       # Number of loads committed
system.switch_cpus_1.commit.membars                 0                       # Number of memory barriers committed
system.switch_cpus_1.commit.op_class_0::No_OpClass            0                       # Class of committed instruction
system.switch_cpus_1.commit.op_class_0::IntAlu            0                       # Class of committed instruction
system.switch_cpus_1.commit.op_class_0::IntMult            0                       # Class of committed instruction
system.switch_cpus_1.commit.op_class_0::IntDiv            0                       # Class of committed instruction
system.switch_cpus_1.commit.op_class_0::FloatAdd            0                       # Class of committed instruction
system.switch_cpus_1.commit.op_class_0::FloatCmp            0                       # Class of committed instruction
system.switch_cpus_1.commit.op_class_0::FloatCvt            0                       # Class of committed instruction
system.switch_cpus_1.commit.op_class_0::FloatMult            0                       # Class of committed instruction
system.switch_cpus_1.commit.op_class_0::FloatMultAcc            0                       # Class of committed instruction
system.switch_cpus_1.commit.op_class_0::FloatDiv            0                       # Class of committed instruction
system.switch_cpus_1.commit.op_class_0::FloatMisc            0                       # Class of committed instruction
system.switch_cpus_1.commit.op_class_0::FloatSqrt            0                       # Class of committed instruction
system.switch_cpus_1.commit.op_class_0::SimdAdd            0                       # Class of committed instruction
system.switch_cpus_1.commit.op_class_0::SimdAddAcc            0                       # Class of committed instruction
system.switch_cpus_1.commit.op_class_0::SimdAlu            0                       # Class of committed instruction
system.switch_cpus_1.commit.op_class_0::SimdCmp            0                       # Class of committed instruction
system.switch_cpus_1.commit.op_class_0::SimdCvt            0                       # Class of committed instruction
system.switch_cpus_1.commit.op_class_0::SimdMisc            0                       # Class of committed instruction
system.switch_cpus_1.commit.op_class_0::SimdMult            0                       # Class of committed instruction
system.switch_cpus_1.commit.op_class_0::SimdMultAcc            0                       # Class of committed instruction
system.switch_cpus_1.commit.op_class_0::SimdShift            0                       # Class of committed instruction
system.switch_cpus_1.commit.op_class_0::SimdShiftAcc            0                       # Class of committed instruction
system.switch_cpus_1.commit.op_class_0::SimdDiv            0                       # Class of committed instruction
system.switch_cpus_1.commit.op_class_0::SimdSqrt            0                       # Class of committed instruction
system.switch_cpus_1.commit.op_class_0::SimdFloatAdd            0                       # Class of committed instruction
system.switch_cpus_1.commit.op_class_0::SimdFloatAlu            0                       # Class of committed instruction
system.switch_cpus_1.commit.op_class_0::SimdFloatCmp            0                       # Class of committed instruction
system.switch_cpus_1.commit.op_class_0::SimdFloatCvt            0                       # Class of committed instruction
system.switch_cpus_1.commit.op_class_0::SimdFloatDiv            0                       # Class of committed instruction
system.switch_cpus_1.commit.op_class_0::SimdFloatMisc            0                       # Class of committed instruction
system.switch_cpus_1.commit.op_class_0::SimdFloatMult            0                       # Class of committed instruction
system.switch_cpus_1.commit.op_class_0::SimdFloatMultAcc            0                       # Class of committed instruction
system.switch_cpus_1.commit.op_class_0::SimdFloatSqrt            0                       # Class of committed instruction
system.switch_cpus_1.commit.op_class_0::SimdReduceAdd            0                       # Class of committed instruction
system.switch_cpus_1.commit.op_class_0::SimdReduceAlu            0                       # Class of committed instruction
system.switch_cpus_1.commit.op_class_0::SimdReduceCmp            0                       # Class of committed instruction
system.switch_cpus_1.commit.op_class_0::SimdFloatReduceAdd            0                       # Class of committed instruction
system.switch_cpus_1.commit.op_class_0::SimdFloatReduceCmp            0                       # Class of committed instruction
system.switch_cpus_1.commit.op_class_0::SimdAes            0                       # Class of committed instruction
system.switch_cpus_1.commit.op_class_0::SimdAesMix            0                       # Class of committed instruction
system.switch_cpus_1.commit.op_class_0::SimdSha1Hash            0                       # Class of committed instruction
system.switch_cpus_1.commit.op_class_0::SimdSha1Hash2            0                       # Class of committed instruction
system.switch_cpus_1.commit.op_class_0::SimdSha256Hash            0                       # Class of committed instruction
system.switch_cpus_1.commit.op_class_0::SimdSha256Hash2            0                       # Class of committed instruction
system.switch_cpus_1.commit.op_class_0::SimdShaSigma2            0                       # Class of committed instruction
system.switch_cpus_1.commit.op_class_0::SimdShaSigma3            0                       # Class of committed instruction
system.switch_cpus_1.commit.op_class_0::SimdPredAlu            0                       # Class of committed instruction
system.switch_cpus_1.commit.op_class_0::MemRead            0                       # Class of committed instruction
system.switch_cpus_1.commit.op_class_0::MemWrite            0                       # Class of committed instruction
system.switch_cpus_1.commit.op_class_0::FloatMemRead            0                       # Class of committed instruction
system.switch_cpus_1.commit.op_class_0::FloatMemWrite            0                       # Class of committed instruction
system.switch_cpus_1.commit.op_class_0::IprAccess            0                       # Class of committed instruction
system.switch_cpus_1.commit.op_class_0::InstPrefetch            0                       # Class of committed instruction
system.switch_cpus_1.commit.op_class_0::total            0                       # Class of committed instruction
system.switch_cpus_1.commit.refs                    0                       # Number of memory references committed
system.switch_cpus_1.commit.swp_count               0                       # Number of s/w prefetches committed
system.switch_cpus_1.commit.vec_insts               0                       # Number of committed Vector instructions.
system.switch_cpus_1.committedInsts                 0                       # Number of Instructions Simulated
system.switch_cpus_1.committedOps                   0                       # Number of Ops (including micro ops) Simulated
system.switch_cpus_1.cpi                          nan                       # CPI: Cycles Per Instruction
system.switch_cpus_1.cpi_total                    nan                       # CPI: Total CPI of All Threads
system.switch_cpus_1.dtb.accesses                   0                       # DTB accesses
system.switch_cpus_1.dtb.align_faults               0                       # Number of TLB faults due to alignment restrictions
system.switch_cpus_1.dtb.domain_faults              0                       # Number of TLB faults due to domain restrictions
system.switch_cpus_1.dtb.flush_entries              0                       # Number of entries that have been flushed from TLB
system.switch_cpus_1.dtb.flush_tlb                  0                       # Number of times complete TLB was flushed
system.switch_cpus_1.dtb.flush_tlb_asid             0                       # Number of times TLB was flushed by ASID
system.switch_cpus_1.dtb.flush_tlb_mva              0                       # Number of times TLB was flushed by MVA
system.switch_cpus_1.dtb.flush_tlb_mva_asid            0                       # Number of times TLB was flushed by MVA & ASID
system.switch_cpus_1.dtb.hits                       0                       # DTB hits
system.switch_cpus_1.dtb.inst_accesses              0                       # ITB inst accesses
system.switch_cpus_1.dtb.inst_hits                  0                       # ITB inst hits
system.switch_cpus_1.dtb.inst_misses                0                       # ITB inst misses
system.switch_cpus_1.dtb.misses                     0                       # DTB misses
system.switch_cpus_1.dtb.perms_faults               0                       # Number of TLB faults due to permissions restrictions
system.switch_cpus_1.dtb.prefetch_faults            0                       # Number of TLB faults due to prefetch
system.switch_cpus_1.dtb.read_accesses              0                       # DTB read accesses
system.switch_cpus_1.dtb.read_hits                  0                       # DTB read hits
system.switch_cpus_1.dtb.read_misses                0                       # DTB read misses
system.switch_cpus_1.dtb.stage2_mmu.stage2_tlb.accesses            0                       # DTB accesses
system.switch_cpus_1.dtb.stage2_mmu.stage2_tlb.align_faults            0                       # Number of TLB faults due to alignment restrictions
system.switch_cpus_1.dtb.stage2_mmu.stage2_tlb.domain_faults            0                       # Number of TLB faults due to domain restrictions
system.switch_cpus_1.dtb.stage2_mmu.stage2_tlb.flush_entries            0                       # Number of entries that have been flushed from TLB
system.switch_cpus_1.dtb.stage2_mmu.stage2_tlb.flush_tlb            0                       # Number of times complete TLB was flushed
system.switch_cpus_1.dtb.stage2_mmu.stage2_tlb.flush_tlb_asid            0                       # Number of times TLB was flushed by ASID
system.switch_cpus_1.dtb.stage2_mmu.stage2_tlb.flush_tlb_mva            0                       # Number of times TLB was flushed by MVA
system.switch_cpus_1.dtb.stage2_mmu.stage2_tlb.flush_tlb_mva_asid            0                       # Number of times TLB was flushed by MVA & ASID
system.switch_cpus_1.dtb.stage2_mmu.stage2_tlb.hits            0                       # DTB hits
system.switch_cpus_1.dtb.stage2_mmu.stage2_tlb.inst_accesses            0                       # ITB inst accesses
system.switch_cpus_1.dtb.stage2_mmu.stage2_tlb.inst_hits            0                       # ITB inst hits
system.switch_cpus_1.dtb.stage2_mmu.stage2_tlb.inst_misses            0                       # ITB inst misses
system.switch_cpus_1.dtb.stage2_mmu.stage2_tlb.misses            0                       # DTB misses
system.switch_cpus_1.dtb.stage2_mmu.stage2_tlb.perms_faults            0                       # Number of TLB faults due to permissions restrictions
system.switch_cpus_1.dtb.stage2_mmu.stage2_tlb.prefetch_faults            0                       # Number of TLB faults due to prefetch
system.switch_cpus_1.dtb.stage2_mmu.stage2_tlb.read_accesses            0                       # DTB read accesses
system.switch_cpus_1.dtb.stage2_mmu.stage2_tlb.read_hits            0                       # DTB read hits
system.switch_cpus_1.dtb.stage2_mmu.stage2_tlb.read_misses            0                       # DTB read misses
system.switch_cpus_1.dtb.stage2_mmu.stage2_tlb.walker.walkRequestOrigin_Requested::Data            0                       # Table walker requests started/completed, data/inst
system.switch_cpus_1.dtb.stage2_mmu.stage2_tlb.walker.walkRequestOrigin_Requested::Inst            0                       # Table walker requests started/completed, data/inst
system.switch_cpus_1.dtb.stage2_mmu.stage2_tlb.walker.walkRequestOrigin_Requested::total            0                       # Table walker requests started/completed, data/inst
system.switch_cpus_1.dtb.stage2_mmu.stage2_tlb.walker.walkRequestOrigin_Completed::Data            0                       # Table walker requests started/completed, data/inst
system.switch_cpus_1.dtb.stage2_mmu.stage2_tlb.walker.walkRequestOrigin_Completed::Inst            0                       # Table walker requests started/completed, data/inst
system.switch_cpus_1.dtb.stage2_mmu.stage2_tlb.walker.walkRequestOrigin_Completed::total            0                       # Table walker requests started/completed, data/inst
system.switch_cpus_1.dtb.stage2_mmu.stage2_tlb.walker.walkRequestOrigin::total            0                       # Table walker requests started/completed, data/inst
system.switch_cpus_1.dtb.stage2_mmu.stage2_tlb.walker.walks            0                       # Table walker walks requested
system.switch_cpus_1.dtb.stage2_mmu.stage2_tlb.write_accesses            0                       # DTB write accesses
system.switch_cpus_1.dtb.stage2_mmu.stage2_tlb.write_hits            0                       # DTB write hits
system.switch_cpus_1.dtb.stage2_mmu.stage2_tlb.write_misses            0                       # DTB write misses
system.switch_cpus_1.dtb.walker.walkRequestOrigin_Requested::Data            0                       # Table walker requests started/completed, data/inst
system.switch_cpus_1.dtb.walker.walkRequestOrigin_Requested::Inst            0                       # Table walker requests started/completed, data/inst
system.switch_cpus_1.dtb.walker.walkRequestOrigin_Requested::total            0                       # Table walker requests started/completed, data/inst
system.switch_cpus_1.dtb.walker.walkRequestOrigin_Completed::Data            0                       # Table walker requests started/completed, data/inst
system.switch_cpus_1.dtb.walker.walkRequestOrigin_Completed::Inst            0                       # Table walker requests started/completed, data/inst
system.switch_cpus_1.dtb.walker.walkRequestOrigin_Completed::total            0                       # Table walker requests started/completed, data/inst
system.switch_cpus_1.dtb.walker.walkRequestOrigin::total            0                       # Table walker requests started/completed, data/inst
system.switch_cpus_1.dtb.walker.walks               0                       # Table walker walks requested
system.switch_cpus_1.dtb.write_accesses             0                       # DTB write accesses
system.switch_cpus_1.dtb.write_hits                 0                       # DTB write hits
system.switch_cpus_1.dtb.write_misses               0                       # DTB write misses
system.switch_cpus_1.fetch.branchRate             nan                       # Number of branch fetches per cycle
system.switch_cpus_1.fetch.idleRate               nan                       # Percent of cycles fetch was idle
system.switch_cpus_1.fetch.rate                   nan                       # Number of inst fetches per cycle
[...]
system.mem_ctrls.rank1.memoryStateTime::SREF            0                       # Time in different power states
system.mem_ctrls.rank1.memoryStateTime::PRE_PDN            0                       # Time in different power states
system.mem_ctrls.rank1.memoryStateTime::ACT            0                       # Time in different power states
system.mem_ctrls.rank1.memoryStateTime::ACT_PDN            0                       # Time in different power states
system.mem_ctrls.rank0.actEnergy                    0                       # Energy for activate commands per rank (pJ)
system.mem_ctrls.rank0.preEnergy                    0                       # Energy for precharge commands per rank (pJ)
system.mem_ctrls.rank0.readEnergy                   0                       # Energy for read commands per rank (pJ)
system.mem_ctrls.rank0.writeEnergy                  0                       # Energy for write commands per rank (pJ)
system.mem_ctrls.rank0.refreshEnergy                0                       # Energy for refresh commands per rank (pJ)
system.mem_ctrls.rank0.actBackEnergy                0                       # Energy for active background per rank (pJ)
system.mem_ctrls.rank0.preBackEnergy     203570472000                       # Energy for precharge background per rank (pJ)
system.mem_ctrls.rank0.actPowerDownEnergy            0                       # Energy for active power-down per rank (pJ)
system.mem_ctrls.rank0.prePowerDownEnergy            0                       # Energy for precharge power-down per rank (pJ)
system.mem_ctrls.rank0.selfRefreshEnergy            0                       # Energy for self refresh per rank (pJ)
system.mem_ctrls.rank0.totalEnergy       203570472000                       # Total energy per rank (pJ)
system.mem_ctrls.rank0.averagePower               384                       # Core power per rank (mW)
system.mem_ctrls.rank0.totalIdleTime                0                       # Total Idle time Per DRAM Rank
system.mem_ctrls.rank0.memoryStateTime::IDLE 530131437500                       # Time in different power states
system.mem_ctrls.rank0.memoryStateTime::REF            0                       # Time in different power states
system.mem_ctrls.rank0.memoryStateTime::SREF            0                       # Time in different power states
system.mem_ctrls.rank0.memoryStateTime::PRE_PDN            0                       # Time in different power states
system.mem_ctrls.rank0.memoryStateTime::ACT            0                       # Time in different power states
system.mem_ctrls.rank0.memoryStateTime::ACT_PDN            0                       # Time in different power states
system.mem_ctrls.power_state.pwrStateResidencyTicks::UNDEFINED 530131437500                       # Cumulative time (in ticks) in various power states
system.cpu_clk_domain.clock                       500                       # Clock period in ticks
system.cpu.icache.demand_hits::.cpu.inst    998938483                       # number of demand (read+write) hits
system.cpu.icache.demand_hits::total        998938483                       # number of demand (read+write) hits
system.cpu.icache.overall_hits::.cpu.inst    998938483                       # number of overall hits
system.cpu.icache.overall_hits::total       998938483                       # number of overall hits
system.cpu.icache.demand_misses::.cpu.inst      1105684                       # number of demand (read+write) misses
system.cpu.icache.demand_misses::total        1105684                       # number of demand (read+write) misses
system.cpu.icache.overall_misses::.cpu.inst      1105684                       # number of overall misses
system.cpu.icache.overall_misses::total       1105684                       # number of overall misses
system.cpu.icache.demand_accesses::.cpu.inst   1000044167                       # number of demand (read+write) accesses
system.cpu.icache.demand_accesses::total   1000044167                       # number of demand (read+write) accesses
system.cpu.icache.overall_accesses::.cpu.inst   1000044167                       # number of overall (read+write) accesses
system.cpu.icache.overall_accesses::total   1000044167                       # number of overall (read+write) accesses
system.cpu.icache.demand_miss_rate::.cpu.inst     0.001106                       # miss rate for demand accesses
system.cpu.icache.demand_miss_rate::total     0.001106                       # miss rate for demand accesses
system.cpu.icache.overall_miss_rate::.cpu.inst     0.001106                       # miss rate for overall accesses
system.cpu.icache.overall_miss_rate::total     0.001106                       # miss rate for overall accesses
system.cpu.icache.blocked_cycles::no_mshrs            0                       # number of cycles access was blocked
system.cpu.icache.blocked_cycles::no_targets            0                       # number of cycles access was blocked
system.cpu.icache.blocked::no_mshrs                 0                       # number of cycles access was blocked
system.cpu.icache.blocked::no_targets               0                       # number of cycles access was blocked
system.cpu.icache.avg_blocked_cycles::no_mshrs          nan                       # average number of cycles each access was blocked
system.cpu.icache.avg_blocked_cycles::no_targets          nan                       # average number of cycles each access was blocked
system.cpu.icache.writebacks::.writebacks      1105174                       # number of writebacks
system.cpu.icache.writebacks::total           1105174                       # number of writebacks
system.cpu.icache.replacements                1105174                       # number of replacements
system.cpu.icache.ReadReq_hits::.cpu.inst    998938483                       # number of ReadReq hits
system.cpu.icache.ReadReq_hits::total       998938483                       # number of ReadReq hits
system.cpu.icache.ReadReq_misses::.cpu.inst      1105684                       # number of ReadReq misses
system.cpu.icache.ReadReq_misses::total       1105684                       # number of ReadReq misses
system.cpu.icache.ReadReq_accesses::.cpu.inst   1000044167                       # number of ReadReq accesses(hits+misses)
system.cpu.icache.ReadReq_accesses::total   1000044167                       # number of ReadReq accesses(hits+misses)
system.cpu.icache.ReadReq_miss_rate::.cpu.inst     0.001106                       # miss rate for ReadReq accesses
system.cpu.icache.ReadReq_miss_rate::total     0.001106                       # miss rate for ReadReq accesses
system.cpu.icache.power_state.pwrStateResidencyTicks::UNDEFINED 530131437500                       # Cumulative time (in ticks) in various power states
system.cpu.icache.tags.tagsinuse           504.260428                       # Cycle average of tags in use
system.cpu.icache.tags.total_refs          1000044167                       # Total number of references to valid blocks.
system.cpu.icache.tags.sampled_refs           1105684                       # Sample count of references to valid blocks.
system.cpu.icache.tags.avg_refs            904.457482                       # Average number of references to valid blocks.
system.cpu.icache.tags.warmup_cycle                 0                       # Cycle when the warmup percentage was hit.
system.cpu.icache.tags.occ_blocks::.cpu.inst   504.260428                       # Average occupied blocks per requestor
system.cpu.icache.tags.occ_percent::.cpu.inst     0.984884                       # Average percentage of cache occupancy
system.cpu.icache.tags.occ_percent::total     0.984884                       # Average percentage of cache occupancy
system.cpu.icache.tags.occ_task_id_blocks::1024          510                       # Occupied blocks per task id
system.cpu.icache.tags.age_task_id_blocks_1024::0           24                       # Occupied blocks per task id
system.cpu.icache.tags.age_task_id_blocks_1024::1           20                       # Occupied blocks per task id
system.cpu.icache.tags.age_task_id_blocks_1024::2           12                       # Occupied blocks per task id
system.cpu.icache.tags.age_task_id_blocks_1024::3           27                       # Occupied blocks per task id
system.cpu.icache.tags.age_task_id_blocks_1024::4          427                       # Occupied blocks per task id
system.cpu.icache.tags.occ_task_id_percent::1024     0.996094                       # Percentage of cache occupancy per task id
system.cpu.icache.tags.tag_accesses        2001194018                       # Number of tag accesses
system.cpu.icache.tags.data_accesses       2001194018                       # Number of data accesses
system.cpu.icache.tags.power_state.pwrStateResidencyTicks::UNDEFINED 530131437500                       # Cumulative time (in ticks) in various power states
system.cpu.dtb.walker.power_state.pwrStateResidencyTicks::UNDEFINED 530131437500                       # Cumulative time (in ticks) in various power states
system.cpu.dtb.stage2_mmu.stage2_tlb.walker.power_state.pwrStateResidencyTicks::UNDEFINED 530131437500                       # Cumulative time (in ticks) in various power states
system.cpu.itb.walker.power_state.pwrStateResidencyTicks::UNDEFINED 530131437500                       # Cumulative time (in ticks) in various power states
system.cpu.itb.stage2_mmu.stage2_tlb.walker.power_state.pwrStateResidencyTicks::UNDEFINED 530131437500                       # Cumulative time (in ticks) in various power states
system.cpu.dcache.demand_hits::.cpu.data    249196423                       # number of demand (read+write) hits
system.cpu.dcache.demand_hits::total        249196423                       # number of demand (read+write) hits
system.cpu.dcache.overall_hits::.cpu.data    249196440                       # number of overall hits
system.cpu.dcache.overall_hits::total       249196440                       # number of overall hits
system.cpu.dcache.demand_misses::.cpu.data     11117481                       # number of demand (read+write) misses
system.cpu.dcache.demand_misses::total       11117481                       # number of demand (read+write) misses
system.cpu.dcache.overall_misses::.cpu.data     11117484                       # number of overall misses
system.cpu.dcache.overall_misses::total      11117484                       # number of overall misses
system.cpu.dcache.demand_accesses::.cpu.data    260313904                       # number of demand (read+write) accesses
system.cpu.dcache.demand_accesses::total    260313904                       # number of demand (read+write) accesses
system.cpu.dcache.overall_accesses::.cpu.data    260313924                       # number of overall (read+write) accesses
system.cpu.dcache.overall_accesses::total    260313924                       # number of overall (read+write) accesses
system.cpu.dcache.demand_miss_rate::.cpu.data     0.042708                       # miss rate for demand accesses
system.cpu.dcache.demand_miss_rate::total     0.042708                       # miss rate for demand accesses
system.cpu.dcache.overall_miss_rate::.cpu.data     0.042708                       # miss rate for overall accesses
system.cpu.dcache.overall_miss_rate::total     0.042708                       # miss rate for overall accesses
system.cpu.dcache.blocked_cycles::no_mshrs            0                       # number of cycles access was blocked
system.cpu.dcache.blocked_cycles::no_targets            0                       # number of cycles access was blocked
system.cpu.dcache.blocked::no_mshrs                 0                       # number of cycles access was blocked
system.cpu.dcache.blocked::no_targets               0                       # number of cycles access was blocked
system.cpu.dcache.avg_blocked_cycles::no_mshrs          nan                       # average number of cycles each access was blocked
system.cpu.dcache.avg_blocked_cycles::no_targets          nan                       # average number of cycles each access was blocked
system.cpu.dcache.writebacks::.writebacks     10259180                       # number of writebacks
system.cpu.dcache.writebacks::total          10259180                       # number of writebacks
system.cpu.dcache.replacements               11116973                       # number of replacements
system.cpu.dcache.ReadReq_hits::.cpu.data    175529133                       # number of ReadReq hits
system.cpu.dcache.ReadReq_hits::total       175529133                       # number of ReadReq hits
system.cpu.dcache.ReadReq_misses::.cpu.data      1657128                       # number of ReadReq misses
system.cpu.dcache.ReadReq_misses::total       1657128                       # number of ReadReq misses
system.cpu.dcache.ReadReq_accesses::.cpu.data    177186261                       # number of ReadReq accesses(hits+misses)
system.cpu.dcache.ReadReq_accesses::total    177186261                       # number of ReadReq accesses(hits+misses)
system.cpu.dcache.ReadReq_miss_rate::.cpu.data     0.009352                       # miss rate for ReadReq accesses
system.cpu.dcache.ReadReq_miss_rate::total     0.009352                       # miss rate for ReadReq accesses
system.cpu.dcache.WriteReq_hits::.cpu.data     73667284                       # number of WriteReq hits
system.cpu.dcache.WriteReq_hits::total       73667284                       # number of WriteReq hits
system.cpu.dcache.WriteReq_misses::.cpu.data      1208640                       # number of WriteReq misses
system.cpu.dcache.WriteReq_misses::total      1208640                       # number of WriteReq misses
system.cpu.dcache.WriteReq_accesses::.cpu.data     74875924                       # number of WriteReq accesses(hits+misses)
system.cpu.dcache.WriteReq_accesses::total     74875924                       # number of WriteReq accesses(hits+misses)
system.cpu.dcache.WriteReq_miss_rate::.cpu.data     0.016142                       # miss rate for WriteReq accesses
system.cpu.dcache.WriteReq_miss_rate::total     0.016142                       # miss rate for WriteReq accesses
system.cpu.dcache.SoftPFReq_hits::.cpu.data           17                       # number of SoftPFReq hits
system.cpu.dcache.SoftPFReq_hits::total            17                       # number of SoftPFReq hits
system.cpu.dcache.SoftPFReq_misses::.cpu.data            3                       # number of SoftPFReq misses
system.cpu.dcache.SoftPFReq_misses::total            3                       # number of SoftPFReq misses
system.cpu.dcache.SoftPFReq_accesses::.cpu.data           20                       # number of SoftPFReq accesses(hits+misses)
system.cpu.dcache.SoftPFReq_accesses::total           20                       # number of SoftPFReq accesses(hits+misses)
system.cpu.dcache.SoftPFReq_miss_rate::.cpu.data     0.150000                       # miss rate for SoftPFReq accesses
system.cpu.dcache.SoftPFReq_miss_rate::total     0.150000                       # miss rate for SoftPFReq accesses
system.cpu.dcache.WriteLineReq_hits::.cpu.data            6                       # number of WriteLineReq hits
system.cpu.dcache.WriteLineReq_hits::total            6                       # number of WriteLineReq hits
system.cpu.dcache.WriteLineReq_misses::.cpu.data      8251713                       # number of WriteLineReq misses
system.cpu.dcache.WriteLineReq_misses::total      8251713                       # number of WriteLineReq misses
system.cpu.dcache.WriteLineReq_accesses::.cpu.data      8251719                       # number of WriteLineReq accesses(hits+misses)
system.cpu.dcache.WriteLineReq_accesses::total      8251719                       # number of WriteLineReq accesses(hits+misses)
system.cpu.dcache.WriteLineReq_miss_rate::.cpu.data     0.999999                       # miss rate for WriteLineReq accesses
system.cpu.dcache.WriteLineReq_miss_rate::total     0.999999                       # miss rate for WriteLineReq accesses
system.cpu.dcache.LoadLockedReq_hits::.cpu.data          389                       # number of LoadLockedReq hits
system.cpu.dcache.LoadLockedReq_hits::total          389                       # number of LoadLockedReq hits
system.cpu.dcache.LoadLockedReq_misses::.cpu.data            1                       # number of LoadLockedReq misses
system.cpu.dcache.LoadLockedReq_misses::total            1                       # number of LoadLockedReq misses
system.cpu.dcache.LoadLockedReq_accesses::.cpu.data          390                       # number of LoadLockedReq accesses(hits+misses)
system.cpu.dcache.LoadLockedReq_accesses::total          390                       # number of LoadLockedReq accesses(hits+misses)
system.cpu.dcache.LoadLockedReq_miss_rate::.cpu.data     0.002564                       # miss rate for LoadLockedReq accesses
system.cpu.dcache.LoadLockedReq_miss_rate::total     0.002564                       # miss rate for LoadLockedReq accesses
system.cpu.dcache.StoreCondReq_hits::.cpu.data          390                       # number of StoreCondReq hits
system.cpu.dcache.StoreCondReq_hits::total          390                       # number of StoreCondReq hits
system.cpu.dcache.StoreCondReq_accesses::.cpu.data          390                       # number of StoreCondReq accesses(hits+misses)
system.cpu.dcache.StoreCondReq_accesses::total          390                       # number of StoreCondReq accesses(hits+misses)
system.cpu.dcache.power_state.pwrStateResidencyTicks::UNDEFINED 530131437500                       # Cumulative time (in ticks) in various power states
system.cpu.dcache.tags.tagsinuse           511.990693                       # Cycle average of tags in use
system.cpu.dcache.tags.total_refs           260314704                       # Total number of references to valid blocks.
system.cpu.dcache.tags.sampled_refs          11117485                       # Sample count of references to valid blocks.
system.cpu.dcache.tags.avg_refs             23.414891                       # Average number of references to valid blocks.
system.cpu.dcache.tags.warmup_cycle              1500                       # Cycle when the warmup percentage was hit.
system.cpu.dcache.tags.occ_blocks::.cpu.data   511.990693                       # Average occupied blocks per requestor
system.cpu.dcache.tags.occ_percent::.cpu.data     0.999982                       # Average percentage of cache occupancy
system.cpu.dcache.tags.occ_percent::total     0.999982                       # Average percentage of cache occupancy
system.cpu.dcache.tags.occ_task_id_blocks::1024          512                       # Occupied blocks per task id
system.cpu.dcache.tags.age_task_id_blocks_1024::0           53                       # Occupied blocks per task id
system.cpu.dcache.tags.age_task_id_blocks_1024::1          120                       # Occupied blocks per task id
system.cpu.dcache.tags.age_task_id_blocks_1024::2          189                       # Occupied blocks per task id
system.cpu.dcache.tags.age_task_id_blocks_1024::3          150                       # Occupied blocks per task id
system.cpu.dcache.tags.occ_task_id_percent::1024            1                       # Percentage of cache occupancy per task id
system.cpu.dcache.tags.tag_accesses         531746893                       # Number of tag accesses
system.cpu.dcache.tags.data_accesses        531746893                       # Number of data accesses
system.cpu.dcache.tags.power_state.pwrStateResidencyTicks::UNDEFINED 530131437500                       # Cumulative time (in ticks) in various power states
system.cpu.power_state.numTransitions               1                       # Number of power state transitions
system.cpu.power_state.pwrStateResidencyTicks::ON 530131437500                       # Cumulative time (in ticks) in various power states

---------- End Simulation Statistics   ----------
