
---------- Begin Simulation Statistics ----------
final_tick                                 1053574500                       # Number of ticks from beginning of simulation (restored from checkpoints and never reset)
host_inst_rate                                  67104                       # Simulator instruction rate (inst/s)
host_mem_usage                                 858048                       # Number of bytes of host memory used
host_op_rate                                    70809                       # Simulator op (including micro ops) rate (op/s)
host_seconds                                    63.01                       # Real time elapsed on the host
host_tick_rate                               16719942                       # Simulator tick rate (ticks/s)
sim_freq                                 1000000000000                       # Frequency of simulated ticks
sim_insts                                     4228395                       # Number of instructions simulated
sim_ops                                       4461863                       # Number of ops (including micro ops) simulated
sim_seconds                                  0.001054                       # Number of seconds simulated
sim_ticks                                  1053574500                       # Number of ticks simulated
system.cpu.branchPred.BTBCorrect                    0                       # Number of correct BTB predictions (this stat may not work properly.
system.cpu.branchPred.BTBHitPct             99.137452                       # BTB Hit Percentage
system.cpu.branchPred.BTBHits                  336876                       # Number of BTB hits
system.cpu.branchPred.BTBLookups               339807                       # Number of BTB lookups
system.cpu.branchPred.RASInCorrect                  4                       # Number of incorrect RAS predictions.
system.cpu.branchPred.condIncorrect              4613                       # Number of conditional branches incorrect
system.cpu.branchPred.condPredicted            381675                       # Number of conditional branches predicted
system.cpu.branchPred.indirectHits               1154                       # Number of indirect target hits.
system.cpu.branchPred.indirectLookups            2054                       # Number of indirect predictor lookups.
system.cpu.branchPred.indirectMisses              900                       # Number of indirect misses.
system.cpu.branchPred.lookups                  520506                       # Number of BP lookups
system.cpu.branchPred.loop_predictor.loopPredictorCorrect       132700                       # Number of times the loop predictor is the provider and the prediction is correct
system.cpu.branchPred.loop_predictor.loopPredictorWrong       221755                       # Number of times the loop predictor is the provider and the prediction is wrong
system.cpu.branchPred.statistical_corrector.scPredictorCorrect       102550                       # Number of time the SC predictor is the provider and the prediction is correct
system.cpu.branchPred.statistical_corrector.scPredictorWrong       251905                       # Number of time the SC predictor is the provider and the prediction is wrong
system.cpu.branchPred.tage.bimodalAltMatchProviderCorrect          417                       # Number of times TAGE Alt Match is the bimodal and it is the provider and the prediction is correct
system.cpu.branchPred.tage.bimodalAltMatchProviderWrong          132                       # Number of times TAGE Alt Match is the bimodal and it is the provider and the prediction is wrong
system.cpu.branchPred.tage.tageAltMatchProvider::0         1742                       # TAGE provider for alt match
system.cpu.branchPred.tage.tageAltMatchProvider::1            0                       # TAGE provider for alt match
system.cpu.branchPred.tage.tageAltMatchProvider::2         1267                       # TAGE provider for alt match
system.cpu.branchPred.tage.tageAltMatchProvider::3            0                       # TAGE provider for alt match
system.cpu.branchPred.tage.tageAltMatchProvider::4          467                       # TAGE provider for alt match
system.cpu.branchPred.tage.tageAltMatchProvider::5            0                       # TAGE provider for alt match
system.cpu.branchPred.tage.tageAltMatchProvider::6          214                       # TAGE provider for alt match
system.cpu.branchPred.tage.tageAltMatchProvider::7         1492                       # TAGE provider for alt match
system.cpu.branchPred.tage.tageAltMatchProvider::8          160                       # TAGE provider for alt match
system.cpu.branchPred.tage.tageAltMatchProvider::9          104                       # TAGE provider for alt match
system.cpu.branchPred.tage.tageAltMatchProvider::10          264                       # TAGE provider for alt match
system.cpu.branchPred.tage.tageAltMatchProvider::11         1173                       # TAGE provider for alt match
system.cpu.branchPred.tage.tageAltMatchProvider::12          268                       # TAGE provider for alt match
system.cpu.branchPred.tage.tageAltMatchProvider::13          115                       # TAGE provider for alt match
system.cpu.branchPred.tage.tageAltMatchProvider::14          138                       # TAGE provider for alt match
system.cpu.branchPred.tage.tageAltMatchProvider::15           78                       # TAGE provider for alt match
system.cpu.branchPred.tage.tageAltMatchProvider::16          107                       # TAGE provider for alt match
system.cpu.branchPred.tage.tageAltMatchProvider::17           61                       # TAGE provider for alt match
system.cpu.branchPred.tage.tageAltMatchProvider::18           58                       # TAGE provider for alt match
system.cpu.branchPred.tage.tageAltMatchProvider::19           74                       # TAGE provider for alt match
system.cpu.branchPred.tage.tageAltMatchProvider::20           59                       # TAGE provider for alt match
system.cpu.branchPred.tage.tageAltMatchProvider::21            0                       # TAGE provider for alt match
system.cpu.branchPred.tage.tageAltMatchProvider::22           71                       # TAGE provider for alt match
system.cpu.branchPred.tage.tageAltMatchProvider::23            0                       # TAGE provider for alt match
system.cpu.branchPred.tage.tageAltMatchProvider::24          111                       # TAGE provider for alt match
system.cpu.branchPred.tage.tageAltMatchProvider::25            0                       # TAGE provider for alt match
system.cpu.branchPred.tage.tageAltMatchProvider::26           76                       # TAGE provider for alt match
system.cpu.branchPred.tage.tageAltMatchProvider::27            0                       # TAGE provider for alt match
system.cpu.branchPred.tage.tageAltMatchProvider::28          103                       # TAGE provider for alt match
system.cpu.branchPred.tage.tageAltMatchProvider::29            0                       # TAGE provider for alt match
system.cpu.branchPred.tage.tageAltMatchProvider::30            0                       # TAGE provider for alt match
system.cpu.branchPred.tage.tageAltMatchProviderCorrect          752                       # Number of times TAGE Alt Match is the provider and the prediction is correct
system.cpu.branchPred.tage.tageAltMatchProviderWouldHaveHit          117                       # Number of times TAGE Longest Match is the provider, the prediction is wrong and Alt Match prediction was correct
system.cpu.branchPred.tage.tageAltMatchProviderWrong          428                       # Number of times TAGE Alt Match is the provider and the prediction is wrong
system.cpu.branchPred.tage.tageBimodalProviderCorrect       343381                       # Number of times there are no hits on the TAGE tables and the bimodal prediction is correct
system.cpu.branchPred.tage.tageBimodalProviderWrong         1645                       # Number of times there are no hits on the TAGE tables and the bimodal prediction is wrong
system.cpu.branchPred.tage.tageLongestMatchProvider::0            0                       # TAGE provider for longest match
system.cpu.branchPred.tage.tageLongestMatchProvider::1            0                       # TAGE provider for longest match
system.cpu.branchPred.tage.tageLongestMatchProvider::2          408                       # TAGE provider for longest match
system.cpu.branchPred.tage.tageLongestMatchProvider::3            0                       # TAGE provider for longest match
system.cpu.branchPred.tage.tageLongestMatchProvider::4          195                       # TAGE provider for longest match
system.cpu.branchPred.tage.tageLongestMatchProvider::5            0                       # TAGE provider for longest match
system.cpu.branchPred.tage.tageLongestMatchProvider::6         1422                       # TAGE provider for longest match
system.cpu.branchPred.tage.tageLongestMatchProvider::7          431                       # TAGE provider for longest match
system.cpu.branchPred.tage.tageLongestMatchProvider::8          728                       # TAGE provider for longest match
system.cpu.branchPred.tage.tageLongestMatchProvider::9          179                       # TAGE provider for longest match
system.cpu.branchPred.tage.tageLongestMatchProvider::10         1722                       # TAGE provider for longest match
system.cpu.branchPred.tage.tageLongestMatchProvider::11          265                       # TAGE provider for longest match
system.cpu.branchPred.tage.tageLongestMatchProvider::12          171                       # TAGE provider for longest match
system.cpu.branchPred.tage.tageLongestMatchProvider::13          308                       # TAGE provider for longest match
system.cpu.branchPred.tage.tageLongestMatchProvider::14         1260                       # TAGE provider for longest match
system.cpu.branchPred.tage.tageLongestMatchProvider::15          151                       # TAGE provider for longest match
system.cpu.branchPred.tage.tageLongestMatchProvider::16          106                       # TAGE provider for longest match
system.cpu.branchPred.tage.tageLongestMatchProvider::17          114                       # TAGE provider for longest match
system.cpu.branchPred.tage.tageLongestMatchProvider::18           85                       # TAGE provider for longest match
system.cpu.branchPred.tage.tageLongestMatchProvider::19           48                       # TAGE provider for longest match
system.cpu.branchPred.tage.tageLongestMatchProvider::20           59                       # TAGE provider for longest match
system.cpu.branchPred.tage.tageLongestMatchProvider::21            0                       # TAGE provider for longest match
system.cpu.branchPred.tage.tageLongestMatchProvider::22          110                       # TAGE provider for longest match
system.cpu.branchPred.tage.tageLongestMatchProvider::23            0                       # TAGE provider for longest match
system.cpu.branchPred.tage.tageLongestMatchProvider::24           78                       # TAGE provider for longest match
system.cpu.branchPred.tage.tageLongestMatchProvider::25            0                       # TAGE provider for longest match
system.cpu.branchPred.tage.tageLongestMatchProvider::26           77                       # TAGE provider for longest match
system.cpu.branchPred.tage.tageLongestMatchProvider::27            0                       # TAGE provider for longest match
system.cpu.branchPred.tage.tageLongestMatchProvider::28          141                       # TAGE provider for longest match
system.cpu.branchPred.tage.tageLongestMatchProvider::29            0                       # TAGE provider for longest match
system.cpu.branchPred.tage.tageLongestMatchProvider::30          144                       # TAGE provider for longest match
system.cpu.branchPred.tage.tageLongestMatchProviderCorrect         6513                       # Number of times TAGE Longest Match is the provider and the prediction is correct
system.cpu.branchPred.tage.tageLongestMatchProviderWouldHaveHit          198                       # Number of times TAGE Alt Match is the provider, the prediction is wrong and Longest Match prediction was correct
system.cpu.branchPred.tage.tageLongestMatchProviderWrong          509                       # Number of times TAGE Longest Match is the provider and the prediction is wrong
system.cpu.branchPred.usedRAS                   64770                       # Number of times the RAS was used to get a target.
system.cpu.branchPredindirectMispredicted          303                       # Number of mispredicted indirect branches.
system.cpu.cc_regfile_reads                    889243                       # number of cc regfile reads
system.cpu.cc_regfile_writes                   886418                       # number of cc regfile writes
system.cpu.commit.amos                              0                       # Number of atomic instructions committed
system.cpu.commit.branchMispredicts              3699                       # The number of times a branch was mispredicted
system.cpu.commit.branches                     487016                       # Number of branches committed
system.cpu.commit.bw_lim_events                371309                       # number cycles where commit BW limit reached
system.cpu.commit.commitNonSpecStalls             313                       # The number of times commit has been forced to stall to communicate backwards
system.cpu.commit.commitSquashedInsts          108568                       # The number of squashed insts skipped by commit
system.cpu.commit.committedInsts              4228952                       # Number of instructions committed
system.cpu.commit.committedOps                4462420                       # Number of ops (including micro ops) committed
system.cpu.commit.committed_per_cycle::samples      1981616                       # Number of insts commited each cycle
system.cpu.commit.committed_per_cycle::mean     2.251910                       # Number of insts commited each cycle
system.cpu.commit.committed_per_cycle::stdev     3.088466                       # Number of insts commited each cycle
system.cpu.commit.committed_per_cycle::underflows            0      0.00%      0.00% # Number of insts commited each cycle
system.cpu.commit.committed_per_cycle::0       939932     47.43%     47.43% # Number of insts commited each cycle
system.cpu.commit.committed_per_cycle::1       281444     14.20%     61.64% # Number of insts commited each cycle
system.cpu.commit.committed_per_cycle::2       259594     13.10%     74.74% # Number of insts commited each cycle
system.cpu.commit.committed_per_cycle::3        13530      0.68%     75.42% # Number of insts commited each cycle
system.cpu.commit.committed_per_cycle::4         7040      0.36%     75.77% # Number of insts commited each cycle
system.cpu.commit.committed_per_cycle::5        53848      2.72%     78.49% # Number of insts commited each cycle
system.cpu.commit.committed_per_cycle::6        31107      1.57%     80.06% # Number of insts commited each cycle
system.cpu.commit.committed_per_cycle::7        23812      1.20%     81.26% # Number of insts commited each cycle
system.cpu.commit.committed_per_cycle::8       371309     18.74%    100.00% # Number of insts commited each cycle
system.cpu.commit.committed_per_cycle::overflows            0      0.00%    100.00% # Number of insts commited each cycle
system.cpu.commit.committed_per_cycle::min_value            0                       # Number of insts commited each cycle
system.cpu.commit.committed_per_cycle::max_value            8                       # Number of insts commited each cycle
system.cpu.commit.committed_per_cycle::total      1981616                       # Number of insts commited each cycle
system.cpu.commit.fp_insts                          0                       # Number of committed floating point instructions.
system.cpu.commit.function_calls                63038                       # Number of function calls committed.
system.cpu.commit.int_insts                   2716588                       # Number of committed integer instructions.
system.cpu.commit.loads                        501197                       # Number of loads committed
system.cpu.commit.membars                         278                       # Number of memory barriers committed
system.cpu.commit.op_class_0::No_OpClass          165      0.00%      0.00% # Class of committed instruction
system.cpu.commit.op_class_0::IntAlu          2086122     46.75%     46.75% # Class of committed instruction
system.cpu.commit.op_class_0::IntMult            3338      0.07%     46.83% # Class of committed instruction
system.cpu.commit.op_class_0::IntDiv              459      0.01%     46.84% # Class of committed instruction
system.cpu.commit.op_class_0::FloatAdd         334068      7.49%     54.32% # Class of committed instruction
system.cpu.commit.op_class_0::FloatCmp              4      0.00%     54.32% # Class of committed instruction
system.cpu.commit.op_class_0::FloatCvt          76968      1.72%     56.05% # Class of committed instruction
system.cpu.commit.op_class_0::FloatMult        257002      5.76%     61.81% # Class of committed instruction
system.cpu.commit.op_class_0::FloatMultAcc       811455     18.18%     79.99% # Class of committed instruction
system.cpu.commit.op_class_0::FloatDiv              3      0.00%     79.99% # Class of committed instruction
system.cpu.commit.op_class_0::FloatMisc        176468      3.95%     83.95% # Class of committed instruction
system.cpu.commit.op_class_0::FloatSqrt             0      0.00%     83.95% # Class of committed instruction
system.cpu.commit.op_class_0::SimdAdd             385      0.01%     83.96% # Class of committed instruction
system.cpu.commit.op_class_0::SimdAddAcc            0      0.00%     83.96% # Class of committed instruction
system.cpu.commit.op_class_0::SimdAlu             504      0.01%     83.97% # Class of committed instruction
system.cpu.commit.op_class_0::SimdCmp             460      0.01%     83.98% # Class of committed instruction
system.cpu.commit.op_class_0::SimdCvt               0      0.00%     83.98% # Class of committed instruction
system.cpu.commit.op_class_0::SimdMisc            477      0.01%     83.99% # Class of committed instruction
system.cpu.commit.op_class_0::SimdMult              0      0.00%     83.99% # Class of committed instruction
system.cpu.commit.op_class_0::SimdMultAcc            0      0.00%     83.99% # Class of committed instruction
system.cpu.commit.op_class_0::SimdShift             0      0.00%     83.99% # Class of committed instruction
system.cpu.commit.op_class_0::SimdShiftAcc            0      0.00%     83.99% # Class of committed instruction
system.cpu.commit.op_class_0::SimdDiv               0      0.00%     83.99% # Class of committed instruction
system.cpu.commit.op_class_0::SimdSqrt              0      0.00%     83.99% # Class of committed instruction
system.cpu.commit.op_class_0::SimdFloatAdd            0      0.00%     83.99% # Class of committed instruction
system.cpu.commit.op_class_0::SimdFloatAlu            0      0.00%     83.99% # Class of committed instruction
system.cpu.commit.op_class_0::SimdFloatCmp            0      0.00%     83.99% # Class of committed instruction
system.cpu.commit.op_class_0::SimdFloatCvt            0      0.00%     83.99% # Class of committed instruction
system.cpu.commit.op_class_0::SimdFloatDiv            0      0.00%     83.99% # Class of committed instruction
system.cpu.commit.op_class_0::SimdFloatMisc            0      0.00%     83.99% # Class of committed instruction
system.cpu.commit.op_class_0::SimdFloatMult            0      0.00%     83.99% # Class of committed instruction
system.cpu.commit.op_class_0::SimdFloatMultAcc            0      0.00%     83.99% # Class of committed instruction
system.cpu.commit.op_class_0::SimdFloatSqrt            0      0.00%     83.99% # Class of committed instruction
system.cpu.commit.op_class_0::SimdReduceAdd            0      0.00%     83.99% # Class of committed instruction
system.cpu.commit.op_class_0::SimdReduceAlu            0      0.00%     83.99% # Class of committed instruction
system.cpu.commit.op_class_0::SimdReduceCmp            0      0.00%     83.99% # Class of committed instruction
system.cpu.commit.op_class_0::SimdFloatReduceAdd            0      0.00%     83.99% # Class of committed instruction
system.cpu.commit.op_class_0::SimdFloatReduceCmp            0      0.00%     83.99% # Class of committed instruction
system.cpu.commit.op_class_0::SimdAes               0      0.00%     83.99% # Class of committed instruction
system.cpu.commit.op_class_0::SimdAesMix            0      0.00%     83.99% # Class of committed instruction
system.cpu.commit.op_class_0::SimdSha1Hash            0      0.00%     83.99% # Class of committed instruction
system.cpu.commit.op_class_0::SimdSha1Hash2            0      0.00%     83.99% # Class of committed instruction
system.cpu.commit.op_class_0::SimdSha256Hash            0      0.00%     83.99% # Class of committed instruction
system.cpu.commit.op_class_0::SimdSha256Hash2            0      0.00%     83.99% # Class of committed instruction
system.cpu.commit.op_class_0::SimdShaSigma2            0      0.00%     83.99% # Class of committed instruction
system.cpu.commit.op_class_0::SimdShaSigma3            0      0.00%     83.99% # Class of committed instruction
system.cpu.commit.op_class_0::SimdPredAlu            0      0.00%     83.99% # Class of committed instruction
system.cpu.commit.op_class_0::MemRead          501197     11.23%     95.22% # Class of committed instruction
system.cpu.commit.op_class_0::MemWrite         213345      4.78%    100.00% # Class of committed instruction
system.cpu.commit.op_class_0::FloatMemRead            0      0.00%    100.00% # Class of committed instruction
system.cpu.commit.op_class_0::FloatMemWrite            0      0.00%    100.00% # Class of committed instruction
system.cpu.commit.op_class_0::IprAccess             0      0.00%    100.00% # Class of committed instruction
system.cpu.commit.op_class_0::InstPrefetch            0      0.00%    100.00% # Class of committed instruction
system.cpu.commit.op_class_0::total           4462420                       # Class of committed instruction
system.cpu.commit.refs                         714542                       # Number of memory references committed
system.cpu.commit.swp_count                         0                       # Number of s/w prefetches committed
system.cpu.commit.vec_insts                   2111732                       # Number of committed Vector instructions.
system.cpu.committedInsts                     4228395                       # Number of Instructions Simulated
system.cpu.committedOps                       4461863                       # Number of Ops (including micro ops) Simulated
system.cpu.cpi                               0.498334                       # CPI: Cycles Per Instruction
system.cpu.cpi_total                         0.498334                       # CPI: Total CPI of All Threads
system.cpu.decode.BlockedCycles                363050                       # Number of cycles decode is blocked
system.cpu.decode.BranchMispred                   934                       # Number of times decode detected a branch misprediction
system.cpu.decode.BranchResolved               336059                       # Number of times decode resolved a branch
system.cpu.decode.DecodedInsts                4608188                       # Number of instructions handled by decode
system.cpu.decode.IdleCycles                   656637                       # Number of cycles decode is idle
system.cpu.decode.RunCycles                    953848                       # Number of cycles decode is running
system.cpu.decode.SquashCycles                   4106                       # Number of cycles decode is squashing
system.cpu.decode.SquashedInsts                  3253                       # Number of squashed instructions handled by decode
system.cpu.decode.UnblockCycles                 20068                       # Number of cycles decode is unblocking
system.cpu.dtb.accesses                             0                       # DTB accesses
system.cpu.dtb.align_faults                         0                       # Number of TLB faults due to alignment restrictions
system.cpu.dtb.domain_faults                        0                       # Number of TLB faults due to domain restrictions
system.cpu.dtb.flush_entries                        0                       # Number of entries that have been flushed from TLB
system.cpu.dtb.flush_tlb                            0                       # Number of times complete TLB was flushed
system.cpu.dtb.flush_tlb_asid                       0                       # Number of times TLB was flushed by ASID
system.cpu.dtb.flush_tlb_mva                        0                       # Number of times TLB was flushed by MVA
system.cpu.dtb.flush_tlb_mva_asid                   0                       # Number of times TLB was flushed by MVA & ASID
system.cpu.dtb.hits                                 0                       # DTB hits
system.cpu.dtb.inst_accesses                        0                       # ITB inst accesses
system.cpu.dtb.inst_hits                            0                       # ITB inst hits
system.cpu.dtb.inst_misses                          0                       # ITB inst misses
system.cpu.dtb.misses                               0                       # DTB misses
system.cpu.dtb.perms_faults                         0                       # Number of TLB faults due to permissions restrictions
system.cpu.dtb.prefetch_faults                      0                       # Number of TLB faults due to prefetch
system.cpu.dtb.read_accesses                        0                       # DTB read accesses
system.cpu.dtb.read_hits                            0                       # DTB read hits
system.cpu.dtb.read_misses                          0                       # DTB read misses
system.cpu.dtb.stage2_mmu.stage2_tlb.accesses            0                       # DTB accesses
system.cpu.dtb.stage2_mmu.stage2_tlb.align_faults            0                       # Number of TLB faults due to alignment restrictions
system.cpu.dtb.stage2_mmu.stage2_tlb.domain_faults            0                       # Number of TLB faults due to domain restrictions
system.cpu.dtb.stage2_mmu.stage2_tlb.flush_entries            0                       # Number of entries that have been flushed from TLB
system.cpu.dtb.stage2_mmu.stage2_tlb.flush_tlb            0                       # Number of times complete TLB was flushed
system.cpu.dtb.stage2_mmu.stage2_tlb.flush_tlb_asid            0                       # Number of times TLB was flushed by ASID
system.cpu.dtb.stage2_mmu.stage2_tlb.flush_tlb_mva            0                       # Number of times TLB was flushed by MVA
system.cpu.dtb.stage2_mmu.stage2_tlb.flush_tlb_mva_asid            0                       # Number of times TLB was flushed by MVA & ASID
system.cpu.dtb.stage2_mmu.stage2_tlb.hits            0                       # DTB hits
system.cpu.dtb.stage2_mmu.stage2_tlb.inst_accesses            0                       # ITB inst accesses
system.cpu.dtb.stage2_mmu.stage2_tlb.inst_hits            0                       # ITB inst hits
system.cpu.dtb.stage2_mmu.stage2_tlb.inst_misses            0                       # ITB inst misses
system.cpu.dtb.stage2_mmu.stage2_tlb.misses            0                       # DTB misses
system.cpu.dtb.stage2_mmu.stage2_tlb.perms_faults            0                       # Number of TLB faults due to permissions restrictions
system.cpu.dtb.stage2_mmu.stage2_tlb.prefetch_faults            0                       # Number of TLB faults due to prefetch
system.cpu.dtb.stage2_mmu.stage2_tlb.read_accesses            0                       # DTB read accesses
system.cpu.dtb.stage2_mmu.stage2_tlb.read_hits            0                       # DTB read hits
system.cpu.dtb.stage2_mmu.stage2_tlb.read_misses            0                       # DTB read misses
system.cpu.dtb.stage2_mmu.stage2_tlb.walker.walkRequestOrigin_Requested::Data            0                       # Table walker requests started/completed, data/inst
system.cpu.dtb.stage2_mmu.stage2_tlb.walker.walkRequestOrigin_Requested::Inst            0                       # Table walker requests started/completed, data/inst
system.cpu.dtb.stage2_mmu.stage2_tlb.walker.walkRequestOrigin_Requested::total            0                       # Table walker requests started/completed, data/inst
system.cpu.dtb.stage2_mmu.stage2_tlb.walker.walkRequestOrigin_Completed::Data            0                       # Table walker requests started/completed, data/inst
system.cpu.dtb.stage2_mmu.stage2_tlb.walker.walkRequestOrigin_Completed::Inst            0                       # Table walker requests started/completed, data/inst
system.cpu.dtb.stage2_mmu.stage2_tlb.walker.walkRequestOrigin_Completed::total            0                       # Table walker requests started/completed, data/inst
system.cpu.dtb.stage2_mmu.stage2_tlb.walker.walkRequestOrigin::total            0                       # Table walker requests started/completed, data/inst
system.cpu.dtb.stage2_mmu.stage2_tlb.walker.walks            0                       # Table walker walks requested
system.cpu.dtb.stage2_mmu.stage2_tlb.write_accesses            0                       # DTB write accesses
system.cpu.dtb.stage2_mmu.stage2_tlb.write_hits            0                       # DTB write hits
system.cpu.dtb.stage2_mmu.stage2_tlb.write_misses            0                       # DTB write misses
system.cpu.dtb.walker.walkRequestOrigin_Requested::Data            0                       # Table walker requests started/completed, data/inst
system.cpu.dtb.walker.walkRequestOrigin_Requested::Inst            0                       # Table walker requests started/completed, data/inst
system.cpu.dtb.walker.walkRequestOrigin_Requested::total            0                       # Table walker requests started/completed, data/inst
system.cpu.dtb.walker.walkRequestOrigin_Completed::Data            0                       # Table walker requests started/completed, data/inst
system.cpu.dtb.walker.walkRequestOrigin_Completed::Inst            0                       # Table walker requests started/completed, data/inst
system.cpu.dtb.walker.walkRequestOrigin_Completed::total            0                       # Table walker requests started/completed, data/inst
system.cpu.dtb.walker.walkRequestOrigin::total            0                       # Table walker requests started/completed, data/inst
system.cpu.dtb.walker.walks                         0                       # Table walker walks requested
system.cpu.dtb.write_accesses                       0                       # DTB write accesses
system.cpu.dtb.write_hits                           0                       # DTB write hits
system.cpu.dtb.write_misses                         0                       # DTB write misses
system.cpu.fetch.Branches                      520506                       # Number of branches that fetch encountered
system.cpu.fetch.CacheLines                    715674                       # Number of cache lines fetched
system.cpu.fetch.Cycles                       1225431                       # Number of cycles fetch has run and was not squashing or blocked
system.cpu.fetch.IcacheSquashes                  2459                       # Number of outstanding Icache misses that were squashed
system.cpu.fetch.IcacheWaitRetryStallCycles           79                       # Number of stall cycles due to full MSHR
system.cpu.fetch.Insts                        4390288                       # Number of instructions fetch has processed
system.cpu.fetch.MiscStallCycles                    5                       # Number of cycles fetch has spent waiting on interrupts, or bad addresses, or out of MSHRs
system.cpu.fetch.SquashCycles                   10040                       # Number of cycles fetch has spent squashing
system.cpu.fetch.branchRate                  0.247019                       # Number of branch fetches per cycle
system.cpu.fetch.icacheStallCycles             767174                       # Number of cycles fetch is stalled on an Icache miss
system.cpu.fetch.predictedBranches             402800                       # Number of branches that fetch has predicted taken
system.cpu.fetch.rate                        2.083518                       # Number of inst fetches per cycle
system.cpu.fetch.rateDist::samples            1997709                       # Number of instructions fetched each cycle (Total)
system.cpu.fetch.rateDist::mean              2.321836                       # Number of instructions fetched each cycle (Total)
system.cpu.fetch.rateDist::stdev             2.918243                       # Number of instructions fetched each cycle (Total)
system.cpu.fetch.rateDist::underflows               0      0.00%      0.00% # Number of instructions fetched each cycle (Total)
system.cpu.fetch.rateDist::0                   950569     47.58%     47.58% # Number of instructions fetched each cycle (Total)
system.cpu.fetch.rateDist::1                   191830      9.60%     57.19% # Number of instructions fetched each cycle (Total)
system.cpu.fetch.rateDist::2                   134766      6.75%     63.93% # Number of instructions fetched each cycle (Total)
system.cpu.fetch.rateDist::3                   108027      5.41%     69.34% # Number of instructions fetched each cycle (Total)
system.cpu.fetch.rateDist::4                   177776      8.90%     78.24% # Number of instructions fetched each cycle (Total)
system.cpu.fetch.rateDist::5                    40613      2.03%     80.27% # Number of instructions fetched each cycle (Total)
system.cpu.fetch.rateDist::6                   104716      5.24%     85.51% # Number of instructions fetched each cycle (Total)
system.cpu.fetch.rateDist::7                     4851      0.24%     85.76% # Number of instructions fetched each cycle (Total)
system.cpu.fetch.rateDist::8                   284561     14.24%    100.00% # Number of instructions fetched each cycle (Total)
system.cpu.fetch.rateDist::overflows                0      0.00%    100.00% # Number of instructions fetched each cycle (Total)
system.cpu.fetch.rateDist::min_value                0                       # Number of instructions fetched each cycle (Total)
system.cpu.fetch.rateDist::max_value                8                       # Number of instructions fetched each cycle (Total)
system.cpu.fetch.rateDist::total              1997709                       # Number of instructions fetched each cycle (Total)
system.cpu.idleCycles                          109442                       # Total number of cycles that the CPU has spent unscheduled due to idling
system.cpu.iew.branchMispredicts                 4557                       # Number of branch mispredicts detected at execute
system.cpu.iew.exec_branches                   502342                       # Number of branches executed
system.cpu.iew.exec_nop                           710                       # number of nop insts executed
system.cpu.iew.exec_rate                     2.159643                       # Inst execution rate
system.cpu.iew.exec_refs                       738078                       # number of memory reference insts executed
system.cpu.iew.exec_stores                     224764                       # Number of stores executed
system.cpu.iew.exec_swp                             0                       # number of swp insts executed
system.cpu.iew.iewBlockCycles                   25163                       # Number of cycles IEW is blocking
system.cpu.iew.iewDispLoadInsts                513801                       # Number of dispatched load instructions
system.cpu.iew.iewDispNonSpecInsts                399                       # Number of dispatched non-speculative instructions
system.cpu.iew.iewDispSquashedInsts              1426                       # Number of squashed instructions skipped by dispatch
system.cpu.iew.iewDispStoreInsts               228881                       # Number of dispatched store instructions
system.cpu.iew.iewDispatchedInsts             4576686                       # Number of instructions dispatched to IQ
system.cpu.iew.iewExecLoadInsts                513314                       # Number of load instructions executed
system.cpu.iew.iewExecSquashedInsts              6669                       # Number of squashed instructions skipped in execute
system.cpu.iew.iewExecutedInsts               4550693                       # Number of executed instructions
system.cpu.iew.iewIQFullEvents                    168                       # Number of times the IQ has become full, causing a stall
system.cpu.iew.iewIdleCycles                        0                       # Number of cycles IEW is idle
system.cpu.iew.iewLSQFullEvents                  3449                       # Number of times the LSQ has become full, causing a stall
system.cpu.iew.iewSquashCycles                   4106                       # Number of cycles IEW is squashing
system.cpu.iew.iewUnblockCycles                  3748                       # Number of cycles IEW is unblocking
system.cpu.iew.lsq.thread0.blockedLoads             0                       # Number of blocked loads due to partial load-store forwarding
system.cpu.iew.lsq.thread0.cacheBlocked         14156                       # Number of times an access to memory failed due to the cache being blocked
system.cpu.iew.lsq.thread0.forwLoads             2751                       # Number of loads that had data forwarded from stores
system.cpu.iew.lsq.thread0.ignoredResponses           42                       # Number of memory responses ignored because the instruction is squashed
system.cpu.iew.lsq.thread0.invAddrLoads             0                       # Number of loads ignored due to an invalid address
system.cpu.iew.lsq.thread0.invAddrSwpfs             0                       # Number of software prefetches ignored due to an invalid address
system.cpu.iew.lsq.thread0.memOrderViolation          110                       # Number of memory ordering violations
system.cpu.iew.lsq.thread0.rescheduledLoads         2057                       # Number of loads that were rescheduled
system.cpu.iew.lsq.thread0.squashedLoads        12604                       # Number of loads squashed
system.cpu.iew.lsq.thread0.squashedStores        15536                       # Number of stores squashed
system.cpu.iew.memOrderViolationEvents            110                       # Number of memory order violations
system.cpu.iew.predictedNotTakenIncorrect         2886                       # Number of branches that were predicted not taken incorrectly
system.cpu.iew.predictedTakenIncorrect           1671                       # Number of branches that were predicted taken incorrectly
system.cpu.iew.wb_consumers                   5863235                       # num instructions consuming a value
system.cpu.iew.wb_count                       4535968                       # cumulative count of insts written-back
system.cpu.iew.wb_fanout                     0.605977                       # average fanout of values written-back
system.cpu.iew.wb_producers                   3552985                       # num instructions producing a value
system.cpu.iew.wb_rate                       2.152654                       # insts written-back per cycle
system.cpu.iew.wb_sent                        4544945                       # cumulative count of insts sent to commit
system.cpu.int_regfile_reads                  3279159                       # number of integer regfile reads
system.cpu.int_regfile_writes                 1898171                       # number of integer regfile writes
system.cpu.ipc                               2.006688                       # IPC: Instructions Per Cycle
system.cpu.ipc_total                         2.006688                       # IPC: Total IPC of All Threads
system.cpu.iq.FU_type_0::No_OpClass               185      0.00%      0.00% # Type of FU issued
system.cpu.iq.FU_type_0::IntAlu               2154615     47.28%     47.28% # Type of FU issued
system.cpu.iq.FU_type_0::IntMult                 3409      0.07%     47.36% # Type of FU issued
system.cpu.iq.FU_type_0::IntDiv                   489      0.01%     47.37% # Type of FU issued
system.cpu.iq.FU_type_0::FloatAdd              334085      7.33%     54.70% # Type of FU issued
system.cpu.iq.FU_type_0::FloatCmp                   5      0.00%     54.70% # Type of FU issued
system.cpu.iq.FU_type_0::FloatCvt               76975      1.69%     56.39% # Type of FU issued
system.cpu.iq.FU_type_0::FloatMult             257023      5.64%     62.03% # Type of FU issued
system.cpu.iq.FU_type_0::FloatMultAcc          811502     17.81%     79.83% # Type of FU issued
system.cpu.iq.FU_type_0::FloatDiv                   3      0.00%     79.83% # Type of FU issued
system.cpu.iq.FU_type_0::FloatMisc             176521      3.87%     83.71% # Type of FU issued
system.cpu.iq.FU_type_0::FloatSqrt                  0      0.00%     83.71% # Type of FU issued
system.cpu.iq.FU_type_0::SimdAdd                  436      0.01%     83.72% # Type of FU issued
system.cpu.iq.FU_type_0::SimdAddAcc                 0      0.00%     83.72% # Type of FU issued
system.cpu.iq.FU_type_0::SimdAlu                  560      0.01%     83.73% # Type of FU issued
system.cpu.iq.FU_type_0::SimdCmp                  507      0.01%     83.74% # Type of FU issued
system.cpu.iq.FU_type_0::SimdCvt                    0      0.00%     83.74% # Type of FU issued
system.cpu.iq.FU_type_0::SimdMisc                 538      0.01%     83.75% # Type of FU issued
system.cpu.iq.FU_type_0::SimdMult                   0      0.00%     83.75% # Type of FU issued
system.cpu.iq.FU_type_0::SimdMultAcc                0      0.00%     83.75% # Type of FU issued
system.cpu.iq.FU_type_0::SimdShift                  0      0.00%     83.75% # Type of FU issued
system.cpu.iq.FU_type_0::SimdShiftAcc               0      0.00%     83.75% # Type of FU issued
system.cpu.iq.FU_type_0::SimdDiv                    0      0.00%     83.75% # Type of FU issued
system.cpu.iq.FU_type_0::SimdSqrt                   0      0.00%     83.75% # Type of FU issued
system.cpu.iq.FU_type_0::SimdFloatAdd               0      0.00%     83.75% # Type of FU issued
system.cpu.iq.FU_type_0::SimdFloatAlu               0      0.00%     83.75% # Type of FU issued
system.cpu.iq.FU_type_0::SimdFloatCmp               0      0.00%     83.75% # Type of FU issued
system.cpu.iq.FU_type_0::SimdFloatCvt               0      0.00%     83.75% # Type of FU issued
system.cpu.iq.FU_type_0::SimdFloatDiv               0      0.00%     83.75% # Type of FU issued
system.cpu.iq.FU_type_0::SimdFloatMisc              0      0.00%     83.75% # Type of FU issued
system.cpu.iq.FU_type_0::SimdFloatMult              0      0.00%     83.75% # Type of FU issued
system.cpu.iq.FU_type_0::SimdFloatMultAcc            0      0.00%     83.75% # Type of FU issued
system.cpu.iq.FU_type_0::SimdFloatSqrt              0      0.00%     83.75% # Type of FU issued
system.cpu.iq.FU_type_0::SimdReduceAdd              0      0.00%     83.75% # Type of FU issued
system.cpu.iq.FU_type_0::SimdReduceAlu              0      0.00%     83.75% # Type of FU issued
system.cpu.iq.FU_type_0::SimdReduceCmp              0      0.00%     83.75% # Type of FU issued
system.cpu.iq.FU_type_0::SimdFloatReduceAdd            0      0.00%     83.75% # Type of FU issued
system.cpu.iq.FU_type_0::SimdFloatReduceCmp            0      0.00%     83.75% # Type of FU issued
system.cpu.iq.FU_type_0::SimdAes                    0      0.00%     83.75% # Type of FU issued
system.cpu.iq.FU_type_0::SimdAesMix                 0      0.00%     83.75% # Type of FU issued
system.cpu.iq.FU_type_0::SimdSha1Hash               0      0.00%     83.75% # Type of FU issued
system.cpu.iq.FU_type_0::SimdSha1Hash2              0      0.00%     83.75% # Type of FU issued
system.cpu.iq.FU_type_0::SimdSha256Hash             0      0.00%     83.75% # Type of FU issued
system.cpu.iq.FU_type_0::SimdSha256Hash2            0      0.00%     83.75% # Type of FU issued
system.cpu.iq.FU_type_0::SimdShaSigma2              0      0.00%     83.75% # Type of FU issued
system.cpu.iq.FU_type_0::SimdShaSigma3              0      0.00%     83.75% # Type of FU issued
system.cpu.iq.FU_type_0::SimdPredAlu                0      0.00%     83.75% # Type of FU issued
system.cpu.iq.FU_type_0::MemRead               514698     11.29%     95.05% # Type of FU issued
system.cpu.iq.FU_type_0::MemWrite              225811      4.95%    100.00% # Type of FU issued
system.cpu.iq.FU_type_0::FloatMemRead               0      0.00%    100.00% # Type of FU issued
system.cpu.iq.FU_type_0::FloatMemWrite              0      0.00%    100.00% # Type of FU issued
system.cpu.iq.FU_type_0::IprAccess                  0      0.00%    100.00% # Type of FU issued
system.cpu.iq.FU_type_0::InstPrefetch               0      0.00%    100.00% # Type of FU issued
system.cpu.iq.FU_type_0::total                4557362                       # Type of FU issued
system.cpu.iq.fp_alu_accesses                       0                       # Number of floating point alu accesses
system.cpu.iq.fp_inst_queue_reads                   0                       # Number of floating instruction queue reads
system.cpu.iq.fp_inst_queue_wakeup_accesses            0                       # Number of floating instruction queue wakeup accesses
system.cpu.iq.fp_inst_queue_writes                  0                       # Number of floating instruction queue writes
system.cpu.iq.fu_busy_cnt                      135324                       # FU busy when requested
system.cpu.iq.fu_busy_rate                   0.029693                       # FU busy rate (busy events/executed inst)
system.cpu.iq.fu_full::No_OpClass                   0      0.00%      0.00% # attempts to use FU when none available
system.cpu.iq.fu_full::IntAlu                    2488      1.84%      1.84% # attempts to use FU when none available
system.cpu.iq.fu_full::IntMult                    523      0.39%      2.23% # attempts to use FU when none available
system.cpu.iq.fu_full::IntDiv                       0      0.00%      2.23% # attempts to use FU when none available
system.cpu.iq.fu_full::FloatAdd                     0      0.00%      2.23% # attempts to use FU when none available
system.cpu.iq.fu_full::FloatCmp                     0      0.00%      2.23% # attempts to use FU when none available
system.cpu.iq.fu_full::FloatCvt                     0      0.00%      2.23% # attempts to use FU when none available
system.cpu.iq.fu_full::FloatMult                18659     13.79%     16.01% # attempts to use FU when none available
system.cpu.iq.fu_full::FloatMultAcc             82074     60.65%     76.66% # attempts to use FU when none available
system.cpu.iq.fu_full::FloatDiv                     0      0.00%     76.66% # attempts to use FU when none available
system.cpu.iq.fu_full::FloatMisc                26474     19.56%     96.23% # attempts to use FU when none available
system.cpu.iq.fu_full::FloatSqrt                    0      0.00%     96.23% # attempts to use FU when none available
system.cpu.iq.fu_full::SimdAdd                      0      0.00%     96.23% # attempts to use FU when none available
system.cpu.iq.fu_full::SimdAddAcc                   0      0.00%     96.23% # attempts to use FU when none available
system.cpu.iq.fu_full::SimdAlu                      1      0.00%     96.23% # attempts to use FU when none available
system.cpu.iq.fu_full::SimdCmp                      1      0.00%     96.23% # attempts to use FU when none available
system.cpu.iq.fu_full::SimdCvt                      0      0.00%     96.23% # attempts to use FU when none available
system.cpu.iq.fu_full::SimdMisc                     0      0.00%     96.23% # attempts to use FU when none available
system.cpu.iq.fu_full::SimdMult                     0      0.00%     96.23% # attempts to use FU when none available
system.cpu.iq.fu_full::SimdMultAcc                  0      0.00%     96.23% # attempts to use FU when none available
system.cpu.iq.fu_full::SimdShift                    0      0.00%     96.23% # attempts to use FU when none available
system.cpu.iq.fu_full::SimdShiftAcc                 0      0.00%     96.23% # attempts to use FU when none available
system.cpu.iq.fu_full::SimdDiv                      0      0.00%     96.23% # attempts to use FU when none available
system.cpu.iq.fu_full::SimdSqrt                     0      0.00%     96.23% # attempts to use FU when none available
system.cpu.iq.fu_full::SimdFloatAdd                 0      0.00%     96.23% # attempts to use FU when none available
system.cpu.iq.fu_full::SimdFloatAlu                 0      0.00%     96.23% # attempts to use FU when none available
system.cpu.iq.fu_full::SimdFloatCmp                 0      0.00%     96.23% # attempts to use FU when none available
system.cpu.iq.fu_full::SimdFloatCvt                 0      0.00%     96.23% # attempts to use FU when none available
system.cpu.iq.fu_full::SimdFloatDiv                 0      0.00%     96.23% # attempts to use FU when none available
system.cpu.iq.fu_full::SimdFloatMisc                0      0.00%     96.23% # attempts to use FU when none available
system.cpu.iq.fu_full::SimdFloatMult                0      0.00%     96.23% # attempts to use FU when none available
system.cpu.iq.fu_full::SimdFloatMultAcc             0      0.00%     96.23% # attempts to use FU when none available
system.cpu.iq.fu_full::SimdFloatSqrt                0      0.00%     96.23% # attempts to use FU when none available
system.cpu.iq.fu_full::SimdReduceAdd                0      0.00%     96.23% # attempts to use FU when none available
system.cpu.iq.fu_full::SimdReduceAlu                0      0.00%     96.23% # attempts to use FU when none available
system.cpu.iq.fu_full::SimdReduceCmp                0      0.00%     96.23% # attempts to use FU when none available
system.cpu.iq.fu_full::SimdFloatReduceAdd            0      0.00%     96.23% # attempts to use FU when none available
system.cpu.iq.fu_full::SimdFloatReduceCmp            0      0.00%     96.23% # attempts to use FU when none available
system.cpu.iq.fu_full::SimdAes                      0      0.00%     96.23% # attempts to use FU when none available
system.cpu.iq.fu_full::SimdAesMix                   0      0.00%     96.23% # attempts to use FU when none available
system.cpu.iq.fu_full::SimdSha1Hash                 0      0.00%     96.23% # attempts to use FU when none available
system.cpu.iq.fu_full::SimdSha1Hash2                0      0.00%     96.23% # attempts to use FU when none available
system.cpu.iq.fu_full::SimdSha256Hash               0      0.00%     96.23% # attempts to use FU when none available
system.cpu.iq.fu_full::SimdSha256Hash2              0      0.00%     96.23% # attempts to use FU when none available
system.cpu.iq.fu_full::SimdShaSigma2                0      0.00%     96.23% # attempts to use FU when none available
system.cpu.iq.fu_full::SimdShaSigma3                0      0.00%     96.23% # attempts to use FU when none available
system.cpu.iq.fu_full::SimdPredAlu                  0      0.00%     96.23% # attempts to use FU when none available
system.cpu.iq.fu_full::MemRead                   1832      1.35%     97.58% # attempts to use FU when none available
system.cpu.iq.fu_full::MemWrite                  3272      2.42%    100.00% # attempts to use FU when none available
system.cpu.iq.fu_full::FloatMemRead                 0      0.00%    100.00% # attempts to use FU when none available
system.cpu.iq.fu_full::FloatMemWrite                0      0.00%    100.00% # attempts to use FU when none available
system.cpu.iq.fu_full::IprAccess                    0      0.00%    100.00% # attempts to use FU when none available
system.cpu.iq.fu_full::InstPrefetch                 0      0.00%    100.00% # attempts to use FU when none available
system.cpu.iq.int_alu_accesses                2452497                       # Number of integer alu accesses
system.cpu.iq.int_inst_queue_reads            6895831                       # Number of integer instruction queue reads
system.cpu.iq.int_inst_queue_wakeup_accesses      2423718                       # Number of integer instruction queue wakeup accesses
system.cpu.iq.int_inst_queue_writes           2575820                       # Number of integer instruction queue writes
system.cpu.iq.iqInstsAdded                    4575577                       # Number of instructions added to the IQ (excludes non-spec)
system.cpu.iq.iqInstsIssued                   4557362                       # Number of instructions issued
system.cpu.iq.iqNonSpecInstsAdded                 399                       # Number of non-speculative instructions added to the IQ
system.cpu.iq.iqSquashedInstsExamined          114112                       # Number of squashed instructions iterated over during squash; mainly for profiling
system.cpu.iq.iqSquashedInstsIssued               878                       # Number of squashed instructions issued
system.cpu.iq.iqSquashedNonSpecRemoved             86                       # Number of squashed non-spec instructions that were removed
system.cpu.iq.iqSquashedOperandsExamined        71086                       # Number of squashed operands that are examined and possibly removed from graph
system.cpu.iq.issued_per_cycle::samples       1997709                       # Number of insts issued each cycle
system.cpu.iq.issued_per_cycle::mean         2.281294                       # Number of insts issued each cycle
system.cpu.iq.issued_per_cycle::stdev        2.078526                       # Number of insts issued each cycle
system.cpu.iq.issued_per_cycle::underflows            0      0.00%      0.00% # Number of insts issued each cycle
system.cpu.iq.issued_per_cycle::0              497807     24.92%     24.92% # Number of insts issued each cycle
system.cpu.iq.issued_per_cycle::1              304182     15.23%     40.15% # Number of insts issued each cycle
system.cpu.iq.issued_per_cycle::2              447368     22.39%     62.54% # Number of insts issued each cycle
system.cpu.iq.issued_per_cycle::3              274782     13.75%     76.29% # Number of insts issued each cycle
system.cpu.iq.issued_per_cycle::4              165046      8.26%     84.56% # Number of insts issued each cycle
system.cpu.iq.issued_per_cycle::5              155081      7.76%     92.32% # Number of insts issued each cycle
system.cpu.iq.issued_per_cycle::6               29020      1.45%     93.77% # Number of insts issued each cycle
system.cpu.iq.issued_per_cycle::7               70995      3.55%     97.33% # Number of insts issued each cycle
system.cpu.iq.issued_per_cycle::8               53428      2.67%    100.00% # Number of insts issued each cycle
system.cpu.iq.issued_per_cycle::overflows            0      0.00%    100.00% # Number of insts issued each cycle
system.cpu.iq.issued_per_cycle::min_value            0                       # Number of insts issued each cycle
system.cpu.iq.issued_per_cycle::max_value            8                       # Number of insts issued each cycle
system.cpu.iq.issued_per_cycle::total         1997709                       # Number of insts issued each cycle
system.cpu.iq.rate                           2.162808                       # Inst issue rate
system.cpu.iq.vec_alu_accesses                2240004                       # Number of vector alu accesses
system.cpu.iq.vec_inst_queue_reads            4352804                       # Number of vector instruction queue reads
system.cpu.iq.vec_inst_queue_wakeup_accesses      2112250                       # Number of vector instruction queue wakeup accesses
system.cpu.iq.vec_inst_queue_writes           2114374                       # Number of vector instruction queue writes
system.cpu.itb.accesses                             0                       # DTB accesses
system.cpu.itb.align_faults                         0                       # Number of TLB faults due to alignment restrictions
system.cpu.itb.domain_faults                        0                       # Number of TLB faults due to domain restrictions
system.cpu.itb.flush_entries                        0                       # Number of entries that have been flushed from TLB
system.cpu.itb.flush_tlb                            0                       # Number of times complete TLB was flushed
system.cpu.itb.flush_tlb_asid                       0                       # Number of times TLB was flushed by ASID
system.cpu.itb.flush_tlb_mva                        0                       # Number of times TLB was flushed by MVA
system.cpu.itb.flush_tlb_mva_asid                   0                       # Number of times TLB was flushed by MVA & ASID
system.cpu.itb.hits                                 0                       # DTB hits
system.cpu.itb.inst_accesses                        0                       # ITB inst accesses
system.cpu.itb.inst_hits                            0                       # ITB inst hits
system.cpu.itb.inst_misses                          0                       # ITB inst misses
system.cpu.itb.misses                               0                       # DTB misses
system.cpu.itb.perms_faults                         0                       # Number of TLB faults due to permissions restrictions
system.cpu.itb.prefetch_faults                      0                       # Number of TLB faults due to prefetch
system.cpu.itb.read_accesses                        0                       # DTB read accesses
system.cpu.itb.read_hits                            0                       # DTB read hits
system.cpu.itb.read_misses                          0                       # DTB read misses
system.cpu.itb.stage2_mmu.stage2_tlb.accesses            0                       # DTB accesses
system.cpu.itb.stage2_mmu.stage2_tlb.align_faults            0                       # Number of TLB faults due to alignment restrictions
system.cpu.itb.stage2_mmu.stage2_tlb.domain_faults            0                       # Number of TLB faults due to domain restrictions
system.cpu.itb.stage2_mmu.stage2_tlb.flush_entries            0                       # Number of entries that have been flushed from TLB
system.cpu.itb.stage2_mmu.stage2_tlb.flush_tlb            0                       # Number of times complete TLB was flushed
system.cpu.itb.stage2_mmu.stage2_tlb.flush_tlb_asid            0                       # Number of times TLB was flushed by ASID
system.cpu.itb.stage2_mmu.stage2_tlb.flush_tlb_mva            0                       # Number of times TLB was flushed by MVA
system.cpu.itb.stage2_mmu.stage2_tlb.flush_tlb_mva_asid            0                       # Number of times TLB was flushed by MVA & ASID
system.cpu.itb.stage2_mmu.stage2_tlb.hits            0                       # DTB hits
system.cpu.itb.stage2_mmu.stage2_tlb.inst_accesses            0                       # ITB inst accesses
system.cpu.itb.stage2_mmu.stage2_tlb.inst_hits            0                       # ITB inst hits
system.cpu.itb.stage2_mmu.stage2_tlb.inst_misses            0                       # ITB inst misses
system.cpu.itb.stage2_mmu.stage2_tlb.misses            0                       # DTB misses
system.cpu.itb.stage2_mmu.stage2_tlb.perms_faults            0                       # Number of TLB faults due to permissions restrictions
system.cpu.itb.stage2_mmu.stage2_tlb.prefetch_faults            0                       # Number of TLB faults due to prefetch
system.cpu.itb.stage2_mmu.stage2_tlb.read_accesses            0                       # DTB read accesses
system.cpu.itb.stage2_mmu.stage2_tlb.read_hits            0                       # DTB read hits
system.cpu.itb.stage2_mmu.stage2_tlb.read_misses            0                       # DTB read misses
system.cpu.itb.stage2_mmu.stage2_tlb.walker.walkRequestOrigin_Requested::Data            0                       # Table walker requests started/completed, data/inst
system.cpu.itb.stage2_mmu.stage2_tlb.walker.walkRequestOrigin_Requested::Inst            0                       # Table walker requests started/completed, data/inst
system.cpu.itb.stage2_mmu.stage2_tlb.walker.walkRequestOrigin_Requested::total            0                       # Table walker requests started/completed, data/inst
system.cpu.itb.stage2_mmu.stage2_tlb.walker.walkRequestOrigin_Completed::Data            0                       # Table walker requests started/completed, data/inst
system.cpu.itb.stage2_mmu.stage2_tlb.walker.walkRequestOrigin_Completed::Inst            0                       # Table walker requests started/completed, data/inst
system.cpu.itb.stage2_mmu.stage2_tlb.walker.walkRequestOrigin_Completed::total            0                       # Table walker requests started/completed, data/inst
system.cpu.itb.stage2_mmu.stage2_tlb.walker.walkRequestOrigin::total            0                       # Table walker requests started/completed, data/inst
system.cpu.itb.stage2_mmu.stage2_tlb.walker.walks            0                       # Table walker walks requested
system.cpu.itb.stage2_mmu.stage2_tlb.write_accesses            0                       # DTB write accesses
system.cpu.itb.stage2_mmu.stage2_tlb.write_hits            0                       # DTB write hits
system.cpu.itb.stage2_mmu.stage2_tlb.write_misses            0                       # DTB write misses
system.cpu.itb.walker.walkRequestOrigin_Requested::Data            0                       # Table walker requests started/completed, data/inst
system.cpu.itb.walker.walkRequestOrigin_Requested::Inst            0                       # Table walker requests started/completed, data/inst
system.cpu.itb.walker.walkRequestOrigin_Requested::total            0                       # Table walker requests started/completed, data/inst
system.cpu.itb.walker.walkRequestOrigin_Completed::Data            0                       # Table walker requests started/completed, data/inst
system.cpu.itb.walker.walkRequestOrigin_Completed::Inst            0                       # Table walker requests started/completed, data/inst
system.cpu.itb.walker.walkRequestOrigin_Completed::total            0                       # Table walker requests started/completed, data/inst
system.cpu.itb.walker.walkRequestOrigin::total            0                       # Table walker requests started/completed, data/inst
system.cpu.itb.walker.walks                         0                       # Table walker walks requested
system.cpu.itb.write_accesses                       0                       # DTB write accesses
system.cpu.itb.write_hits                           0                       # DTB write hits
system.cpu.itb.write_misses                         0                       # DTB write misses
system.cpu.memDep0.conflictingLoads              2127                       # Number of conflicting loads.
system.cpu.memDep0.conflictingStores             2558                       # Number of conflicting stores.
system.cpu.memDep0.insertedLoads               513801                       # Number of loads inserted to the mem dependence unit.
system.cpu.memDep0.insertedStores              228881                       # Number of stores inserted to the mem dependence unit.
system.cpu.misc_regfile_reads                 7984760                       # number of misc regfile reads
system.cpu.misc_regfile_writes                1480611                       # number of misc regfile writes
system.cpu.numCycles                          2107151                       # number of cpu cycles simulated
system.cpu.numWorkItemsCompleted                    0                       # number of work items this cpu completed
system.cpu.numWorkItemsStarted                      0                       # number of work items this cpu started
system.cpu.rename.BlockCycles                   32298                       # Number of cycles rename is blocking
system.cpu.rename.CommittedMaps               6322780                       # Number of HB maps that are committed
system.cpu.rename.IQFullEvents                   2818                       # Number of times rename has blocked due to IQ full
system.cpu.rename.IdleCycles                   660961                       # Number of cycles rename is idle
system.cpu.rename.LQFullEvents                    548                       # Number of times rename has blocked due to LQ full
system.cpu.rename.ROBFullEvents                   799                       # Number of times rename has blocked due to ROB full
system.cpu.rename.RenameLookups              13696238                       # Number of register rename lookups that rename has made
system.cpu.rename.RenamedInsts                4594735                       # Number of instructions processed by rename
system.cpu.rename.RenamedOperands             6466792                       # Number of destination operands rename has renamed
system.cpu.rename.RunCycles                    969188                       # Number of cycles rename is running
system.cpu.rename.SQFullEvents                 296077                       # Number of times rename has blocked due to SQ full
system.cpu.rename.SquashCycles                   4106                       # Number of cycles rename is squashing
system.cpu.rename.UnblockCycles                301975                       # Number of cycles rename is unblocking
system.cpu.rename.UndoneMaps                   144012                       # Number of HB maps that are undone due to squashing
system.cpu.rename.int_rename_lookups          3332406                       # Number of integer rename lookups
system.cpu.rename.serializeStallCycles          29181                       # count of cycles rename stalled for serializing inst
system.cpu.rename.serializingInsts               1252                       # count of serializing insts renamed
system.cpu.rename.skidInsts                     82171                       # count of insts added to the skid buffer
system.cpu.rename.tempSerializingInsts            398                       # count of temporary serializing insts renamed
system.cpu.rename.vec_rename_lookups          3741510                       # Number of vector rename lookups
system.cpu.rob.rob_reads                      6177109                       # The number of ROB reads
system.cpu.rob.rob_writes                     9158162                       # The number of ROB writes
system.cpu.timesIdled                            1700                       # Number of times that the entire CPU went into an idle state and unscheduled itself
system.cpu.vec_regfile_reads                  3739954                       # number of vector regfile reads
system.cpu.vec_regfile_writes                 2150530                       # number of vector regfile writes
system.cpu.workload.numSyscalls                    34                       # Number of system calls
system.membus.snoop_filter.hit_multi_requests            0                       # Number of requests hitting in the snoop filter with multiple (>1) holders of the requested data.
system.membus.snoop_filter.hit_multi_snoops            0                       # Number of snoops hitting in the snoop filter with multiple (>1) holders of the requested data.
system.membus.snoop_filter.hit_single_requests            0                       # Number of requests hitting in the snoop filter with a single holder of the requested data.
system.membus.snoop_filter.hit_single_snoops            0                       # Number of snoops hitting in the snoop filter with a single holder of the requested data.
system.membus.snoop_filter.tot_requests         19863                       # Total number of requests made to the snoop filter.
system.membus.snoop_filter.tot_snoops               0                       # Total number of snoops made to the snoop filter.
system.tol2bus.snoop_filter.hit_multi_requests            3                       # Number of requests hitting in the snoop filter with multiple (>1) holders of the requested data.
system.tol2bus.snoop_filter.hit_multi_snoops            0                       # Number of snoops hitting in the snoop filter with multiple (>1) holders of the requested data.
system.tol2bus.snoop_filter.hit_single_requests        21732                       # Number of requests hitting in the snoop filter with a single holder of the requested data.
system.tol2bus.snoop_filter.hit_single_snoops            0                       # Number of snoops hitting in the snoop filter with a single holder of the requested data.
system.tol2bus.snoop_filter.tot_requests        44488                       # Total number of requests made to the snoop filter.
system.tol2bus.snoop_filter.tot_snoops              0                       # Total number of snoops made to the snoop filter.
system.membus.trans_dist::ReadResp               1722                       # Transaction distribution
system.membus.trans_dist::ReadExReq             16964                       # Transaction distribution
system.membus.trans_dist::ReadExResp            16964                       # Transaction distribution
system.membus.trans_dist::ReadSharedReq          1722                       # Transaction distribution
system.membus.trans_dist::InvalidateReq          1177                       # Transaction distribution
system.membus.pkt_count_system.l2.mem_side::system.mem_ctrls.port        38549                       # Packet count per connected master and slave (bytes)
system.membus.pkt_count::total                  38549                       # Packet count per connected master and slave (bytes)
system.membus.pkt_size_system.l2.mem_side::system.mem_ctrls.port      1195904                       # Cumulative packet size per connected master and slave (bytes)
system.membus.pkt_size::total                 1195904                       # Cumulative packet size per connected master and slave (bytes)
system.membus.snoops                                0                       # Total snoops (count)
system.membus.snoopTraffic                          0                       # Total snoop traffic (bytes)
system.membus.snoop_fanout::samples             19863                       # Request fanout histogram
system.membus.snoop_fanout::mean                    0                       # Request fanout histogram
system.membus.snoop_fanout::stdev                   0                       # Request fanout histogram
system.membus.snoop_fanout::underflows              0      0.00%      0.00% # Request fanout histogram
system.membus.snoop_fanout::0                   19863    100.00%    100.00% # Request fanout histogram
system.membus.snoop_fanout::1                       0      0.00%    100.00% # Request fanout histogram
system.membus.snoop_fanout::overflows               0      0.00%    100.00% # Request fanout histogram
system.membus.snoop_fanout::min_value               0                       # Request fanout histogram
system.membus.snoop_fanout::max_value               0                       # Request fanout histogram
system.membus.snoop_fanout::total               19863                       # Request fanout histogram
system.membus.reqLayer0.occupancy            28441500                       # Layer occupancy (ticks)
system.membus.reqLayer0.utilization               2.7                       # Layer utilization (%)
system.membus.respLayer1.occupancy           97917750                       # Layer occupancy (ticks)
system.membus.respLayer1.utilization              9.3                       # Layer utilization (%)
system.membus.power_state.pwrStateResidencyTicks::UNDEFINED   1053574500                       # Cumulative time (in ticks) in various power states
system.tol2bus.trans_dist::ReadResp              3538                       # Transaction distribution
system.tol2bus.trans_dist::WritebackDirty        18956                       # Transaction distribution
system.tol2bus.trans_dist::WritebackClean         2304                       # Transaction distribution
system.tol2bus.trans_dist::CleanEvict             472                       # Transaction distribution
system.tol2bus.trans_dist::ReadExReq            17985                       # Transaction distribution
system.tol2bus.trans_dist::ReadExResp           17985                       # Transaction distribution
system.tol2bus.trans_dist::ReadCleanReq          2816                       # Transaction distribution
system.tol2bus.trans_dist::ReadSharedReq          723                       # Transaction distribution
system.tol2bus.trans_dist::InvalidateReq         1232                       # Transaction distribution
system.tol2bus.trans_dist::InvalidateResp         1232                       # Transaction distribution
system.tol2bus.pkt_count_system.cpu.icache.mem_side::system.l2.cpu_side         7935                       # Packet count per connected master and slave (bytes)
system.tol2bus.pkt_count_system.cpu.dcache.mem_side::system.l2.cpu_side        59308                       # Packet count per connected master and slave (bytes)
system.tol2bus.pkt_count::total                 67243                       # Packet count per connected master and slave (bytes)
system.tol2bus.pkt_size_system.cpu.icache.mem_side::system.l2.cpu_side       327616                       # Cumulative packet size per connected master and slave (bytes)
system.tol2bus.pkt_size_system.cpu.dcache.mem_side::system.l2.cpu_side      2410496                       # Cumulative packet size per connected master and slave (bytes)
system.tol2bus.pkt_size::total                2738112                       # Cumulative packet size per connected master and slave (bytes)
system.tol2bus.snoops                               0                       # Total snoops (count)
system.tol2bus.snoopTraffic                         0                       # Total snoop traffic (bytes)
system.tol2bus.snoop_fanout::samples            22756                       # Request fanout histogram
system.tol2bus.snoop_fanout::mean            0.000132                       # Request fanout histogram
system.tol2bus.snoop_fanout::stdev           0.011481                       # Request fanout histogram
system.tol2bus.snoop_fanout::underflows             0      0.00%      0.00% # Request fanout histogram
system.tol2bus.snoop_fanout::0                  22753     99.99%     99.99% # Request fanout histogram
system.tol2bus.snoop_fanout::1                      3      0.01%    100.00% # Request fanout histogram
system.tol2bus.snoop_fanout::2                      0      0.00%    100.00% # Request fanout histogram
system.tol2bus.snoop_fanout::overflows              0      0.00%    100.00% # Request fanout histogram
system.tol2bus.snoop_fanout::min_value              0                       # Request fanout histogram
system.tol2bus.snoop_fanout::max_value              1                       # Request fanout histogram
system.tol2bus.snoop_fanout::total              22756                       # Request fanout histogram
system.tol2bus.reqLayer0.occupancy           43504000                       # Layer occupancy (ticks)
system.tol2bus.reqLayer0.utilization              4.1                       # Layer utilization (%)
system.tol2bus.respLayer1.occupancy          28678000                       # Layer occupancy (ticks)
system.tol2bus.respLayer1.utilization             2.7                       # Layer utilization (%)
system.tol2bus.respLayer0.occupancy           4223997                       # Layer occupancy (ticks)
system.tol2bus.respLayer0.utilization             0.4                       # Layer utilization (%)
system.tol2bus.power_state.pwrStateResidencyTicks::UNDEFINED   1053574500                       # Cumulative time (in ticks) in various power states
system.voltage_domain.voltage                       1                       # Voltage in Volts
system.clk_domain.clock                          1000                       # Clock period in ticks
system.l2.demand_hits::.cpu.inst                 1455                       # number of demand (read+write) hits
system.l2.demand_hits::.cpu.data                 1382                       # number of demand (read+write) hits
system.l2.demand_hits::total                     2837                       # number of demand (read+write) hits
system.l2.overall_hits::.cpu.inst                1455                       # number of overall hits
system.l2.overall_hits::.cpu.data                1382                       # number of overall hits
system.l2.overall_hits::total                    2837                       # number of overall hits
system.l2.demand_misses::.cpu.inst               1361                       # number of demand (read+write) misses
system.l2.demand_misses::.cpu.data              17326                       # number of demand (read+write) misses
system.l2.demand_misses::total                  18687                       # number of demand (read+write) misses
system.l2.overall_misses::.cpu.inst              1361                       # number of overall misses
system.l2.overall_misses::.cpu.data             17326                       # number of overall misses
system.l2.overall_misses::total                 18687                       # number of overall misses
system.l2.demand_miss_latency::.cpu.inst    105612500                       # number of demand (read+write) miss cycles
system.l2.demand_miss_latency::.cpu.data   1290978000                       # number of demand (read+write) miss cycles
system.l2.demand_miss_latency::total       1396590500                       # number of demand (read+write) miss cycles
system.l2.overall_miss_latency::.cpu.inst    105612500                       # number of overall miss cycles
system.l2.overall_miss_latency::.cpu.data   1290978000                       # number of overall miss cycles
system.l2.overall_miss_latency::total      1396590500                       # number of overall miss cycles
system.l2.demand_accesses::.cpu.inst             2816                       # number of demand (read+write) accesses
system.l2.demand_accesses::.cpu.data            18708                       # number of demand (read+write) accesses
system.l2.demand_accesses::total                21524                       # number of demand (read+write) accesses
system.l2.overall_accesses::.cpu.inst            2816                       # number of overall (read+write) accesses
system.l2.overall_accesses::.cpu.data           18708                       # number of overall (read+write) accesses
system.l2.overall_accesses::total               21524                       # number of overall (read+write) accesses
system.l2.demand_miss_rate::.cpu.inst        0.483310                       # miss rate for demand accesses
system.l2.demand_miss_rate::.cpu.data        0.926128                       # miss rate for demand accesses
system.l2.demand_miss_rate::total            0.868194                       # miss rate for demand accesses
system.l2.overall_miss_rate::.cpu.inst       0.483310                       # miss rate for overall accesses
system.l2.overall_miss_rate::.cpu.data       0.926128                       # miss rate for overall accesses
[...]
system.cpu.dcache.overall_miss_latency::total   8610785439                       # number of overall miss cycles
system.cpu.dcache.demand_accesses::.cpu.data       737679                       # number of demand (read+write) accesses
system.cpu.dcache.demand_accesses::total       737679                       # number of demand (read+write) accesses
system.cpu.dcache.overall_accesses::.cpu.data       738046                       # number of overall (read+write) accesses
system.cpu.dcache.overall_accesses::total       738046                       # number of overall (read+write) accesses
system.cpu.dcache.demand_miss_rate::.cpu.data     0.190583                       # miss rate for demand accesses
system.cpu.dcache.demand_miss_rate::total     0.190583                       # miss rate for demand accesses
system.cpu.dcache.overall_miss_rate::.cpu.data     0.190510                       # miss rate for overall accesses
system.cpu.dcache.overall_miss_rate::total     0.190510                       # miss rate for overall accesses
system.cpu.dcache.demand_avg_miss_latency::.cpu.data 61247.931481                       # average overall miss latency
system.cpu.dcache.demand_avg_miss_latency::total 61247.931481                       # average overall miss latency
system.cpu.dcache.overall_avg_miss_latency::.cpu.data 61240.961836                       # average overall miss latency
system.cpu.dcache.overall_avg_miss_latency::total 61240.961836                       # average overall miss latency
system.cpu.dcache.blocked_cycles::no_mshrs       569150                       # number of cycles access was blocked
system.cpu.dcache.blocked_cycles::no_targets            8                       # number of cycles access was blocked
system.cpu.dcache.blocked::no_mshrs             16179                       # number of cycles access was blocked
system.cpu.dcache.blocked::no_targets               1                       # number of cycles access was blocked
system.cpu.dcache.avg_blocked_cycles::no_mshrs    35.178318                       # average number of cycles each access was blocked
system.cpu.dcache.avg_blocked_cycles::no_targets            8                       # average number of cycles each access was blocked
system.cpu.dcache.writebacks::.writebacks        18956                       # number of writebacks
system.cpu.dcache.writebacks::total             18956                       # number of writebacks
system.cpu.dcache.demand_mshr_hits::.cpu.data       120658                       # number of demand (read+write) MSHR hits
system.cpu.dcache.demand_mshr_hits::total       120658                       # number of demand (read+write) MSHR hits
system.cpu.dcache.overall_mshr_hits::.cpu.data       120658                       # number of overall MSHR hits
system.cpu.dcache.overall_mshr_hits::total       120658                       # number of overall MSHR hits
system.cpu.dcache.demand_mshr_misses::.cpu.data        19931                       # number of demand (read+write) MSHR misses
system.cpu.dcache.demand_mshr_misses::total        19931                       # number of demand (read+write) MSHR misses
system.cpu.dcache.overall_mshr_misses::.cpu.data        19937                       # number of overall MSHR misses
system.cpu.dcache.overall_mshr_misses::total        19937                       # number of overall MSHR misses
system.cpu.dcache.demand_mshr_miss_latency::.cpu.data   1379026048                       # number of demand (read+write) MSHR miss cycles
system.cpu.dcache.demand_mshr_miss_latency::total   1379026048                       # number of demand (read+write) MSHR miss cycles
system.cpu.dcache.overall_mshr_miss_latency::.cpu.data   1379309548                       # number of overall MSHR miss cycles
system.cpu.dcache.overall_mshr_miss_latency::total   1379309548                       # number of overall MSHR miss cycles
system.cpu.dcache.demand_mshr_miss_rate::.cpu.data     0.027019                       # mshr miss rate for demand accesses
system.cpu.dcache.demand_mshr_miss_rate::total     0.027019                       # mshr miss rate for demand accesses
system.cpu.dcache.overall_mshr_miss_rate::.cpu.data     0.027013                       # mshr miss rate for overall accesses
system.cpu.dcache.overall_mshr_miss_rate::total     0.027013                       # mshr miss rate for overall accesses
system.cpu.dcache.demand_avg_mshr_miss_latency::.cpu.data 69190.007927                       # average overall mshr miss latency
system.cpu.dcache.demand_avg_mshr_miss_latency::total 69190.007927                       # average overall mshr miss latency
system.cpu.dcache.overall_avg_mshr_miss_latency::.cpu.data 69183.405126                       # average overall mshr miss latency
system.cpu.dcache.overall_avg_mshr_miss_latency::total 69183.405126                       # average overall mshr miss latency
system.cpu.dcache.replacements                  19428                       # number of replacements
system.cpu.dcache.ReadReq_hits::.cpu.data       522269                       # number of ReadReq hits
system.cpu.dcache.ReadReq_hits::total          522269                       # number of ReadReq hits
system.cpu.dcache.ReadReq_misses::.cpu.data         2323                       # number of ReadReq misses
system.cpu.dcache.ReadReq_misses::total          2323                       # number of ReadReq misses
system.cpu.dcache.ReadReq_miss_latency::.cpu.data    126631000                       # number of ReadReq miss cycles
system.cpu.dcache.ReadReq_miss_latency::total    126631000                       # number of ReadReq miss cycles
system.cpu.dcache.ReadReq_accesses::.cpu.data       524592                       # number of ReadReq accesses(hits+misses)
system.cpu.dcache.ReadReq_accesses::total       524592                       # number of ReadReq accesses(hits+misses)
system.cpu.dcache.ReadReq_miss_rate::.cpu.data     0.004428                       # miss rate for ReadReq accesses
system.cpu.dcache.ReadReq_miss_rate::total     0.004428                       # miss rate for ReadReq accesses
system.cpu.dcache.ReadReq_avg_miss_latency::.cpu.data 54511.838140                       # average ReadReq miss latency
system.cpu.dcache.ReadReq_avg_miss_latency::total 54511.838140                       # average ReadReq miss latency
system.cpu.dcache.ReadReq_mshr_hits::.cpu.data         1609                       # number of ReadReq MSHR hits
system.cpu.dcache.ReadReq_mshr_hits::total         1609                       # number of ReadReq MSHR hits
system.cpu.dcache.ReadReq_mshr_misses::.cpu.data          714                       # number of ReadReq MSHR misses
system.cpu.dcache.ReadReq_mshr_misses::total          714                       # number of ReadReq MSHR misses
system.cpu.dcache.ReadReq_mshr_miss_latency::.cpu.data     33763000                       # number of ReadReq MSHR miss cycles
system.cpu.dcache.ReadReq_mshr_miss_latency::total     33763000                       # number of ReadReq MSHR miss cycles
system.cpu.dcache.ReadReq_mshr_miss_rate::.cpu.data     0.001361                       # mshr miss rate for ReadReq accesses
system.cpu.dcache.ReadReq_mshr_miss_rate::total     0.001361                       # mshr miss rate for ReadReq accesses
system.cpu.dcache.ReadReq_avg_mshr_miss_latency::.cpu.data 47287.114846                       # average ReadReq mshr miss latency
system.cpu.dcache.ReadReq_avg_mshr_miss_latency::total 47287.114846                       # average ReadReq mshr miss latency
system.cpu.dcache.WriteReq_hits::.cpu.data        74778                       # number of WriteReq hits
system.cpu.dcache.WriteReq_hits::total          74778                       # number of WriteReq hits
system.cpu.dcache.WriteReq_misses::.cpu.data       137048                       # number of WriteReq misses
system.cpu.dcache.WriteReq_misses::total       137048                       # number of WriteReq misses
system.cpu.dcache.WriteReq_miss_latency::.cpu.data   8445337378                       # number of WriteReq miss cycles
system.cpu.dcache.WriteReq_miss_latency::total   8445337378                       # number of WriteReq miss cycles
system.cpu.dcache.WriteReq_accesses::.cpu.data       211826                       # number of WriteReq accesses(hits+misses)
system.cpu.dcache.WriteReq_accesses::total       211826                       # number of WriteReq accesses(hits+misses)
system.cpu.dcache.WriteReq_miss_rate::.cpu.data     0.646984                       # miss rate for WriteReq accesses
system.cpu.dcache.WriteReq_miss_rate::total     0.646984                       # miss rate for WriteReq accesses
system.cpu.dcache.WriteReq_avg_miss_latency::.cpu.data 61623.207767                       # average WriteReq miss latency
system.cpu.dcache.WriteReq_avg_miss_latency::total 61623.207767                       # average WriteReq miss latency
system.cpu.dcache.WriteReq_mshr_hits::.cpu.data       119049                       # number of WriteReq MSHR hits
system.cpu.dcache.WriteReq_mshr_hits::total       119049                       # number of WriteReq MSHR hits
system.cpu.dcache.WriteReq_mshr_misses::.cpu.data        17999                       # number of WriteReq MSHR misses
system.cpu.dcache.WriteReq_mshr_misses::total        17999                       # number of WriteReq MSHR misses
system.cpu.dcache.WriteReq_mshr_miss_latency::.cpu.data   1307663987                       # number of WriteReq MSHR miss cycles
system.cpu.dcache.WriteReq_mshr_miss_latency::total   1307663987                       # number of WriteReq MSHR miss cycles
system.cpu.dcache.WriteReq_mshr_miss_rate::.cpu.data     0.084971                       # mshr miss rate for WriteReq accesses
system.cpu.dcache.WriteReq_mshr_miss_rate::total     0.084971                       # mshr miss rate for WriteReq accesses
system.cpu.dcache.WriteReq_avg_mshr_miss_latency::.cpu.data 72652.035502                       # average WriteReq mshr miss latency
system.cpu.dcache.WriteReq_avg_mshr_miss_latency::total 72652.035502                       # average WriteReq mshr miss latency
system.cpu.dcache.SoftPFReq_hits::.cpu.data          351                       # number of SoftPFReq hits
system.cpu.dcache.SoftPFReq_hits::total           351                       # number of SoftPFReq hits
system.cpu.dcache.SoftPFReq_misses::.cpu.data           16                       # number of SoftPFReq misses
system.cpu.dcache.SoftPFReq_misses::total           16                       # number of SoftPFReq misses
system.cpu.dcache.SoftPFReq_accesses::.cpu.data          367                       # number of SoftPFReq accesses(hits+misses)
system.cpu.dcache.SoftPFReq_accesses::total          367                       # number of SoftPFReq accesses(hits+misses)
system.cpu.dcache.SoftPFReq_miss_rate::.cpu.data     0.043597                       # miss rate for SoftPFReq accesses
system.cpu.dcache.SoftPFReq_miss_rate::total     0.043597                       # miss rate for SoftPFReq accesses
system.cpu.dcache.SoftPFReq_mshr_misses::.cpu.data            6                       # number of SoftPFReq MSHR misses
system.cpu.dcache.SoftPFReq_mshr_misses::total            6                       # number of SoftPFReq MSHR misses
system.cpu.dcache.SoftPFReq_mshr_miss_latency::.cpu.data       283500                       # number of SoftPFReq MSHR miss cycles
system.cpu.dcache.SoftPFReq_mshr_miss_latency::total       283500                       # number of SoftPFReq MSHR miss cycles
system.cpu.dcache.SoftPFReq_mshr_miss_rate::.cpu.data     0.016349                       # mshr miss rate for SoftPFReq accesses
system.cpu.dcache.SoftPFReq_mshr_miss_rate::total     0.016349                       # mshr miss rate for SoftPFReq accesses
system.cpu.dcache.SoftPFReq_avg_mshr_miss_latency::.cpu.data        47250                       # average SoftPFReq mshr miss latency
system.cpu.dcache.SoftPFReq_avg_mshr_miss_latency::total        47250                       # average SoftPFReq mshr miss latency
system.cpu.dcache.WriteLineReq_hits::.cpu.data           43                       # number of WriteLineReq hits
system.cpu.dcache.WriteLineReq_hits::total           43                       # number of WriteLineReq hits
system.cpu.dcache.WriteLineReq_misses::.cpu.data         1218                       # number of WriteLineReq misses
system.cpu.dcache.WriteLineReq_misses::total         1218                       # number of WriteLineReq misses
system.cpu.dcache.WriteLineReq_miss_latency::.cpu.data     38817061                       # number of WriteLineReq miss cycles
system.cpu.dcache.WriteLineReq_miss_latency::total     38817061                       # number of WriteLineReq miss cycles
system.cpu.dcache.WriteLineReq_accesses::.cpu.data         1261                       # number of WriteLineReq accesses(hits+misses)
system.cpu.dcache.WriteLineReq_accesses::total         1261                       # number of WriteLineReq accesses(hits+misses)
system.cpu.dcache.WriteLineReq_miss_rate::.cpu.data     0.965900                       # miss rate for WriteLineReq accesses
system.cpu.dcache.WriteLineReq_miss_rate::total     0.965900                       # miss rate for WriteLineReq accesses
system.cpu.dcache.WriteLineReq_avg_miss_latency::.cpu.data 31869.508210                       # average WriteLineReq miss latency
system.cpu.dcache.WriteLineReq_avg_miss_latency::total 31869.508210                       # average WriteLineReq miss latency
system.cpu.dcache.WriteLineReq_mshr_misses::.cpu.data         1218                       # number of WriteLineReq MSHR misses
system.cpu.dcache.WriteLineReq_mshr_misses::total         1218                       # number of WriteLineReq MSHR misses
system.cpu.dcache.WriteLineReq_mshr_miss_latency::.cpu.data     37599061                       # number of WriteLineReq MSHR miss cycles
system.cpu.dcache.WriteLineReq_mshr_miss_latency::total     37599061                       # number of WriteLineReq MSHR miss cycles
system.cpu.dcache.WriteLineReq_mshr_miss_rate::.cpu.data     0.965900                       # mshr miss rate for WriteLineReq accesses
system.cpu.dcache.WriteLineReq_mshr_miss_rate::total     0.965900                       # mshr miss rate for WriteLineReq accesses
system.cpu.dcache.WriteLineReq_avg_mshr_miss_latency::.cpu.data 30869.508210                       # average WriteLineReq mshr miss latency
system.cpu.dcache.WriteLineReq_avg_mshr_miss_latency::total 30869.508210                       # average WriteLineReq mshr miss latency
system.cpu.dcache.LoadLockedReq_hits::.cpu.data          307                       # number of LoadLockedReq hits
system.cpu.dcache.LoadLockedReq_hits::total          307                       # number of LoadLockedReq hits
system.cpu.dcache.LoadLockedReq_misses::.cpu.data            8                       # number of LoadLockedReq misses
system.cpu.dcache.LoadLockedReq_misses::total            8                       # number of LoadLockedReq misses
system.cpu.dcache.LoadLockedReq_miss_latency::.cpu.data       276500                       # number of LoadLockedReq miss cycles
system.cpu.dcache.LoadLockedReq_miss_latency::total       276500                       # number of LoadLockedReq miss cycles
system.cpu.dcache.LoadLockedReq_accesses::.cpu.data          315                       # number of LoadLockedReq accesses(hits+misses)
system.cpu.dcache.LoadLockedReq_accesses::total          315                       # number of LoadLockedReq accesses(hits+misses)
system.cpu.dcache.LoadLockedReq_miss_rate::.cpu.data     0.025397                       # miss rate for LoadLockedReq accesses
system.cpu.dcache.LoadLockedReq_miss_rate::total     0.025397                       # miss rate for LoadLockedReq accesses
system.cpu.dcache.LoadLockedReq_avg_miss_latency::.cpu.data 34562.500000                       # average LoadLockedReq miss latency
system.cpu.dcache.LoadLockedReq_avg_miss_latency::total 34562.500000                       # average LoadLockedReq miss latency
system.cpu.dcache.LoadLockedReq_mshr_hits::.cpu.data            5                       # number of LoadLockedReq MSHR hits
system.cpu.dcache.LoadLockedReq_mshr_hits::total            5                       # number of LoadLockedReq MSHR hits
system.cpu.dcache.LoadLockedReq_mshr_misses::.cpu.data            3                       # number of LoadLockedReq MSHR misses
system.cpu.dcache.LoadLockedReq_mshr_misses::total            3                       # number of LoadLockedReq MSHR misses
system.cpu.dcache.LoadLockedReq_mshr_miss_latency::.cpu.data       201000                       # number of LoadLockedReq MSHR miss cycles
system.cpu.dcache.LoadLockedReq_mshr_miss_latency::total       201000                       # number of LoadLockedReq MSHR miss cycles
system.cpu.dcache.LoadLockedReq_mshr_miss_rate::.cpu.data     0.009524                       # mshr miss rate for LoadLockedReq accesses
system.cpu.dcache.LoadLockedReq_mshr_miss_rate::total     0.009524                       # mshr miss rate for LoadLockedReq accesses
system.cpu.dcache.LoadLockedReq_avg_mshr_miss_latency::.cpu.data        67000                       # average LoadLockedReq mshr miss latency
system.cpu.dcache.LoadLockedReq_avg_mshr_miss_latency::total        67000                       # average LoadLockedReq mshr miss latency
system.cpu.dcache.StoreCondReq_hits::.cpu.data          278                       # number of StoreCondReq hits
system.cpu.dcache.StoreCondReq_hits::total          278                       # number of StoreCondReq hits
system.cpu.dcache.StoreCondReq_accesses::.cpu.data          278                       # number of StoreCondReq accesses(hits+misses)
system.cpu.dcache.StoreCondReq_accesses::total          278                       # number of StoreCondReq accesses(hits+misses)
system.cpu.dcache.power_state.pwrStateResidencyTicks::UNDEFINED   1053574500                       # Cumulative time (in ticks) in various power states
system.cpu.dcache.tags.tagsinuse           464.528597                       # Cycle average of tags in use
system.cpu.dcache.tags.total_refs              617966                       # Total number of references to valid blocks.
system.cpu.dcache.tags.sampled_refs             19940                       # Sample count of references to valid blocks.
system.cpu.dcache.tags.avg_refs             30.991274                       # Average number of references to valid blocks.
system.cpu.dcache.tags.warmup_cycle            195500                       # Cycle when the warmup percentage was hit.
system.cpu.dcache.tags.occ_blocks::.cpu.data   464.528597                       # Average occupied blocks per requestor
system.cpu.dcache.tags.occ_percent::.cpu.data     0.907282                       # Average percentage of cache occupancy
system.cpu.dcache.tags.occ_percent::total     0.907282                       # Average percentage of cache occupancy
system.cpu.dcache.tags.occ_task_id_blocks::1024          512                       # Occupied blocks per task id
system.cpu.dcache.tags.age_task_id_blocks_1024::0          214                       # Occupied blocks per task id
system.cpu.dcache.tags.age_task_id_blocks_1024::1          298                       # Occupied blocks per task id
system.cpu.dcache.tags.occ_task_id_percent::1024            1                       # Percentage of cache occupancy per task id
system.cpu.dcache.tags.tag_accesses           1497218                       # Number of tag accesses
system.cpu.dcache.tags.data_accesses          1497218                       # Number of data accesses
system.cpu.dcache.tags.power_state.pwrStateResidencyTicks::UNDEFINED   1053574500                       # Cumulative time (in ticks) in various power states
system.cpu.power_state.pwrStateResidencyTicks::ON   1053574500                       # Cumulative time (in ticks) in various power states

---------- End Simulation Statistics   ----------
